(PID.TID 0000.0001) 
(PID.TID 0000.0001) // ======================================================
(PID.TID 0000.0001) //                      MITgcm UV
(PID.TID 0000.0001) //                      =========
(PID.TID 0000.0001) // ======================================================
(PID.TID 0000.0001) // execution environment starting up...
(PID.TID 0000.0001) 
(PID.TID 0000.0001) // MITgcmUV version:  checkpoint66a
(PID.TID 0000.0001) // Build user:        hajsong
(PID.TID 0000.0001) // Build host:        fs09
(PID.TID 0000.0001) // Build date:        Wed Mar  8 13:29:44 EST 2017
(PID.TID 0000.0001) 
(PID.TID 0000.0001) // =======================================================
(PID.TID 0000.0001) // Execution Environment parameter file "eedata"
(PID.TID 0000.0001) // =======================================================
(PID.TID 0000.0001) ># Example "eedata" file
(PID.TID 0000.0001) ># Lines beginning "#" are comments
(PID.TID 0000.0001) ># nTx - No. threads per process in X
(PID.TID 0000.0001) ># nTy - No. threads per process in Y
(PID.TID 0000.0001) > &EEPARMS
(PID.TID 0000.0001) > nTx=1,
(PID.TID 0000.0001) > nTy=1,
(PID.TID 0000.0001) > &
(PID.TID 0000.0001) ># Note: Some systems use & as the namelist terminator (as shown here).
(PID.TID 0000.0001) >#       Other systems use a / character.
(PID.TID 0000.0001) 
(PID.TID 0000.0001) // =======================================================
(PID.TID 0000.0001) // Computational Grid Specification ( see files "SIZE.h" )
(PID.TID 0000.0001) //                                  ( and "eedata"       )
(PID.TID 0000.0001) // =======================================================
(PID.TID 0000.0001)      nPx =    1 ; /* No. processes in X */
(PID.TID 0000.0001)      nPy =    1 ; /* No. processes in Y */
(PID.TID 0000.0001)      nSx =    3 ; /* No. tiles in X per process */
(PID.TID 0000.0001)      nSy =    2 ; /* No. tiles in Y per process */
(PID.TID 0000.0001)      sNx =   14 ; /* Tile size in X */
(PID.TID 0000.0001)      sNy =   10 ; /* Tile size in Y */
(PID.TID 0000.0001)      OLx =    3 ; /* Tile overlap distance in X */
(PID.TID 0000.0001)      OLy =    3 ; /* Tile overlap distance in Y */
(PID.TID 0000.0001)      nTx =    1 ; /* No. threads in X per process */
(PID.TID 0000.0001)      nTy =    1 ; /* No. threads in Y per process */
(PID.TID 0000.0001)       Nr =   15 ; /* No. levels in the vertical   */
(PID.TID 0000.0001)       Nx =   42 ; /* Total domain size in X ( = nPx*nSx*sNx ) */
(PID.TID 0000.0001)       Ny =   20 ; /* Total domain size in Y ( = nPy*nSy*sNy ) */
(PID.TID 0000.0001)   nTiles =    6 ; /* Total no. tiles per process ( = nSx*nSy ) */
(PID.TID 0000.0001)   nProcs =    1 ; /* Total no. processes ( = nPx*nPy ) */
(PID.TID 0000.0001) nThreads =    1 ; /* Total no. threads per process ( = nTx*nTy ) */
(PID.TID 0000.0001) usingMPI =    F ; /* Flag used to control whether MPI is in use */
(PID.TID 0000.0001)                   /*  note: To execute a program with MPI calls */
(PID.TID 0000.0001)                   /*  it must be launched appropriately e.g     */
(PID.TID 0000.0001)                   /*  "mpirun -np 64 ......"                    */
(PID.TID 0000.0001) useCoupler=    F ;/* Flag used to control communications with   */
(PID.TID 0000.0001)                   /*  other model components, through a coupler */
(PID.TID 0000.0001) debugMode =    F ; /* print debug msg. (sequence of S/R calls)  */
(PID.TID 0000.0001) printMapIncludesZeros=    F ; /* print zeros in Std.Output maps */
(PID.TID 0000.0001) maxLengthPrt1D=   65 /* maxLength of 1D array printed to StdOut */
(PID.TID 0000.0001) 
(PID.TID 0000.0001) // ======================================================
(PID.TID 0000.0001) // Mapping of tiles to threads
(PID.TID 0000.0001) // ======================================================
(PID.TID 0000.0001) // -o- Thread   1, tiles (   1:   3,   1:   2)
(PID.TID 0000.0001) 
(PID.TID 0000.0001) // ======================================================
(PID.TID 0000.0001) // Tile <-> Tile connectvity table
(PID.TID 0000.0001) // ======================================================
(PID.TID 0000.0001) // Tile number: 000001 (process no. = 000000)
(PID.TID 0000.0001) //        WEST: Tile = 000003, Process = 000000, Comm = put
(PID.TID 0000.0001) //                bi = 000003, bj = 000001
(PID.TID 0000.0001) //        EAST: Tile = 000002, Process = 000000, Comm = put
(PID.TID 0000.0001) //                bi = 000002, bj = 000001
(PID.TID 0000.0001) //       SOUTH: Tile = 000004, Process = 000000, Comm = put
(PID.TID 0000.0001) //                bi = 000001, bj = 000002
(PID.TID 0000.0001) //       NORTH: Tile = 000004, Process = 000000, Comm = put
(PID.TID 0000.0001) //                bi = 000001, bj = 000002
(PID.TID 0000.0001) // Tile number: 000002 (process no. = 000000)
(PID.TID 0000.0001) //        WEST: Tile = 000001, Process = 000000, Comm = put
(PID.TID 0000.0001) //                bi = 000001, bj = 000001
(PID.TID 0000.0001) //        EAST: Tile = 000003, Process = 000000, Comm = put
(PID.TID 0000.0001) //                bi = 000003, bj = 000001
(PID.TID 0000.0001) //       SOUTH: Tile = 000005, Process = 000000, Comm = put
(PID.TID 0000.0001) //                bi = 000002, bj = 000002
(PID.TID 0000.0001) //       NORTH: Tile = 000005, Process = 000000, Comm = put
(PID.TID 0000.0001) //                bi = 000002, bj = 000002
(PID.TID 0000.0001) // Tile number: 000003 (process no. = 000000)
(PID.TID 0000.0001) //        WEST: Tile = 000002, Process = 000000, Comm = put
(PID.TID 0000.0001) //                bi = 000002, bj = 000001
(PID.TID 0000.0001) //        EAST: Tile = 000001, Process = 000000, Comm = put
(PID.TID 0000.0001) //                bi = 000001, bj = 000001
(PID.TID 0000.0001) //       SOUTH: Tile = 000006, Process = 000000, Comm = put
(PID.TID 0000.0001) //                bi = 000003, bj = 000002
(PID.TID 0000.0001) //       NORTH: Tile = 000006, Process = 000000, Comm = put
(PID.TID 0000.0001) //                bi = 000003, bj = 000002
(PID.TID 0000.0001) // Tile number: 000004 (process no. = 000000)
(PID.TID 0000.0001) //        WEST: Tile = 000006, Process = 000000, Comm = put
(PID.TID 0000.0001) //                bi = 000003, bj = 000002
(PID.TID 0000.0001) //        EAST: Tile = 000005, Process = 000000, Comm = put
(PID.TID 0000.0001) //                bi = 000002, bj = 000002
(PID.TID 0000.0001) //       SOUTH: Tile = 000001, Process = 000000, Comm = put
(PID.TID 0000.0001) //                bi = 000001, bj = 000001
(PID.TID 0000.0001) //       NORTH: Tile = 000001, Process = 000000, Comm = put
(PID.TID 0000.0001) //                bi = 000001, bj = 000001
(PID.TID 0000.0001) // Tile number: 000005 (process no. = 000000)
(PID.TID 0000.0001) //        WEST: Tile = 000004, Process = 000000, Comm = put
(PID.TID 0000.0001) //                bi = 000001, bj = 000002
(PID.TID 0000.0001) //        EAST: Tile = 000006, Process = 000000, Comm = put
(PID.TID 0000.0001) //                bi = 000003, bj = 000002
(PID.TID 0000.0001) //       SOUTH: Tile = 000002, Process = 000000, Comm = put
(PID.TID 0000.0001) //                bi = 000002, bj = 000001
(PID.TID 0000.0001) //       NORTH: Tile = 000002, Process = 000000, Comm = put
(PID.TID 0000.0001) //                bi = 000002, bj = 000001
(PID.TID 0000.0001) // Tile number: 000006 (process no. = 000000)
(PID.TID 0000.0001) //        WEST: Tile = 000005, Process = 000000, Comm = put
(PID.TID 0000.0001) //                bi = 000002, bj = 000002
(PID.TID 0000.0001) //        EAST: Tile = 000004, Process = 000000, Comm = put
(PID.TID 0000.0001) //                bi = 000001, bj = 000002
(PID.TID 0000.0001) //       SOUTH: Tile = 000003, Process = 000000, Comm = put
(PID.TID 0000.0001) //                bi = 000003, bj = 000001
(PID.TID 0000.0001) //       NORTH: Tile = 000003, Process = 000000, Comm = put
(PID.TID 0000.0001) //                bi = 000003, bj = 000001
(PID.TID 0000.0001) 
(PID.TID 0000.0001)  INI_PARMS: opening model parameter file "data"
(PID.TID 0000.0001)  OPEN_COPY_DATA_FILE: opening file data
(PID.TID 0000.0001) // =======================================================
(PID.TID 0000.0001) // Parameter file "data"
(PID.TID 0000.0001) // =======================================================
(PID.TID 0000.0001) ># ====================
(PID.TID 0000.0001) ># | Model parameters |
(PID.TID 0000.0001) ># ====================
(PID.TID 0000.0001) >#
(PID.TID 0000.0001) ># Continuous equation parameters
(PID.TID 0000.0001) > &PARM01
(PID.TID 0000.0001) > tRef=15*20.,
(PID.TID 0000.0001) > sRef=15*35.,
(PID.TID 0000.0001) > viscAh=3.E5,
(PID.TID 0000.0001) > viscAz=1.E-3,
(PID.TID 0000.0001) > diffKhT=0.E3,
(PID.TID 0000.0001) > diffKhS=0.E3,
(PID.TID 0000.0001) >#diffKzT=3.E-5,
(PID.TID 0000.0001) >#diffKzS=3.E-5,
(PID.TID 0000.0001) > diffKrBL79surf= 3.E-5,
(PID.TID 0000.0001) > diffKrBL79deep= 13.E-5,
(PID.TID 0000.0001) > diffKrBL79Ho  = -2000.,
(PID.TID 0000.0001) > diffKrBL79scl = 150.,
(PID.TID 0000.0001) > gravity=9.81,
(PID.TID 0000.0001) > rhoConst=1035.,
(PID.TID 0000.0001) > rhoConstFresh=1000.,
(PID.TID 0000.0001) > eosType='JMD95Z',
(PID.TID 0000.0001) > implicitFreeSurface=.TRUE.,
(PID.TID 0000.0001) > exactConserv=.TRUE.,
(PID.TID 0000.0001) >#implicitViscosity=.TRUE.,
(PID.TID 0000.0001) > implicitDiffusion=.TRUE.,
(PID.TID 0000.0001) > ivdc_kappa=10.,
(PID.TID 0000.0001) > allowFreezing=.TRUE.,
(PID.TID 0000.0001) ># useCDscheme=.TRUE.,
(PID.TID 0000.0001) ># turn on looped cells
(PID.TID 0000.0001) > hFacMin=.1,
(PID.TID 0000.0001) > hFacMindz=50.,
(PID.TID 0000.0001) >#- I/O params:
(PID.TID 0000.0001) > globalFiles=.TRUE.,
(PID.TID 0000.0001) > writeBinaryPrec=64,
(PID.TID 0000.0001) ># useRealFreshWaterFlux=.TRUE.,
(PID.TID 0000.0001) > &
(PID.TID 0000.0001) >
(PID.TID 0000.0001) ># Elliptic solver parameters
(PID.TID 0000.0001) > &PARM02
(PID.TID 0000.0001) > cg2dMaxIters=1000,
(PID.TID 0000.0001) > cg2dTargetResidual=1.E-13,
(PID.TID 0000.0001) > &
(PID.TID 0000.0001) >
(PID.TID 0000.0001) ># Time stepping parameters
(PID.TID 0000.0001) > &PARM03
(PID.TID 0000.0001) > nIter0=0,
(PID.TID 0000.0001) >#nTimeSteps = 1440,
(PID.TID 0000.0001) > nTimeSteps = 10,
(PID.TID 0000.0001) >#tauCD      = 321428.,
(PID.TID 0000.0001) > deltaT=900.,
(PID.TID 0000.0001) ># deltaTMom     = 900.,
(PID.TID 0000.0001) ># deltaTtracer  = 43200.,
(PID.TID 0000.0001) ># deltaTFreeSurf= 43200.,
(PID.TID 0000.0001) ># deltaTClock   = 43200.,
(PID.TID 0000.0001) > abEps      = 0.1,
(PID.TID 0000.0001) > pChkptFreq = 311040000.,
(PID.TID 0000.0001) > chkptFreq  = 31104000.,
(PID.TID 0000.0001) > dumpFreq   = 2592000.,
(PID.TID 0000.0001) > monitorFreq= 864000.,
(PID.TID 0000.0001) > tauThetaClimRelax = 5184000.,
(PID.TID 0000.0001) > tauSaltClimRelax  = 7776000.,
(PID.TID 0000.0001) > periodicExternalForcing=.TRUE.,
(PID.TID 0000.0001) > externForcingPeriod = 2592000.,
(PID.TID 0000.0001) > externForcingCycle = 31104000.,
(PID.TID 0000.0001) > monitorFreq= 1.,
(PID.TID 0000.0001) > &
(PID.TID 0000.0001) >
(PID.TID 0000.0001) ># Gridding parameters
(PID.TID 0000.0001) > &PARM04
(PID.TID 0000.0001) > usingSphericalPolarGrid=.TRUE.,
(PID.TID 0000.0001) > delZ=  50., 70.,  100., 140., 190.,
(PID.TID 0000.0001) >       240., 290., 340., 390., 440.,
(PID.TID 0000.0001) >       490., 540., 590., 640., 690.,
(PID.TID 0000.0001) > xgOrigin= 236.25,
(PID.TID 0000.0001) > ygOrigin= -81.5625,
(PID.TID 0000.0001) > delX=42*2.8125,
(PID.TID 0000.0001) > delY=20*2.8125,
(PID.TID 0000.0001) > &
(PID.TID 0000.0001) >
(PID.TID 0000.0001) ># Input datasets
(PID.TID 0000.0001) > &PARM05
(PID.TID 0000.0001) > checkIniTemp  = .FALSE.,
(PID.TID 0000.0001) > bathyFile     = 'bathy_box.bin',
(PID.TID 0000.0001) > pSurfInitFile = 'Eta_ini.bin',
(PID.TID 0000.0001) > uVelInitFile  = 'U_ini.bin',
(PID.TID 0000.0001) > vVelInitFile  = 'V_ini.bin',
(PID.TID 0000.0001) > hydrogThetaFile='T_ini.bin',
(PID.TID 0000.0001) > hydrogSaltFile= 'S_ini.bin',
(PID.TID 0000.0001) > zonalWindFile = 'tren_taux_box.bin',
(PID.TID 0000.0001) > meridWindFile = 'tren_tauy_box.bin',
(PID.TID 0000.0001) > thetaClimFile = 'lev_monthly_temp_box.bin',
(PID.TID 0000.0001) > saltClimFile  = 'lev_monthly_salt_box.bin',
(PID.TID 0000.0001) > surfQnetFile  = 'shi_qnet_box.bin',
(PID.TID 0000.0001) > EmPmRFile     = 'shi_empmr_year_box.bin',
(PID.TID 0000.0001) > the_run_name  = 'OBC + Biogeo S.Ocean Box',
(PID.TID 0000.0001) > &
(PID.TID 0000.0001) 
(PID.TID 0000.0001)  INI_PARMS ; starts to read PARM01
(PID.TID 0000.0001)  INI_PARMS ; read PARM01 : OK
(PID.TID 0000.0001)  INI_PARMS ; starts to read PARM02
(PID.TID 0000.0001)  INI_PARMS ; read PARM02 : OK
(PID.TID 0000.0001)  INI_PARMS ; starts to read PARM03
(PID.TID 0000.0001)  INI_PARMS ; read PARM03 : OK
(PID.TID 0000.0001)  INI_PARMS ; starts to read PARM04
(PID.TID 0000.0001)  INI_PARMS ; read PARM04 : OK
(PID.TID 0000.0001)  INI_PARMS ; starts to read PARM05
(PID.TID 0000.0001)  INI_PARMS ; read PARM05 : OK
(PID.TID 0000.0001)  INI_PARMS: finished reading file "data"
(PID.TID 0000.0001)  PACKAGES_BOOT: opening data.pkg
(PID.TID 0000.0001)  OPEN_COPY_DATA_FILE: opening file data.pkg
(PID.TID 0000.0001) // =======================================================
(PID.TID 0000.0001) // Parameter file "data.pkg"
(PID.TID 0000.0001) // =======================================================
(PID.TID 0000.0001) ># Packages
(PID.TID 0000.0001) > &PACKAGES
(PID.TID 0000.0001) > usePTRACERS=.TRUE.,
(PID.TID 0000.0001) > useGCHEM =.TRUE.,
(PID.TID 0000.0001) > useGMRedi=.TRUE.,
(PID.TID 0000.0001) > useOBCS  =.TRUE.,
(PID.TID 0000.0001) > useDiagnostics=.TRUE.,
(PID.TID 0000.0001) > &
(PID.TID 0000.0001) 
(PID.TID 0000.0001)  PACKAGES_BOOT: finished reading data.pkg
(PID.TID 0000.0001)  PACKAGES_BOOT: On/Off package Summary
 --------  pkgs with a standard "usePKG" On/Off switch in "data.pkg":  --------
 pkg/obcs                 compiled   and   used ( useOBCS                  = T )
 pkg/gmredi               compiled   and   used ( useGMRedi                = T )
 pkg/ptracers             compiled   and   used ( usePTRACERS              = T )
 pkg/gchem                compiled   and   used ( useGCHEM                 = T )
 pkg/diagnostics          compiled   and   used ( useDiagnostics           = T )
 -------- pkgs without standard "usePKG" On/Off switch in "data.pkg":  --------
 pkg/generic_advdiff      compiled   and   used ( useGAD                   = T )
 pkg/mom_common           compiled   and   used ( momStepping              = T )
 pkg/mom_vecinv           compiled but not used ( +vectorInvariantMomentum = F )
 pkg/mom_fluxform         compiled   and   used ( & not vectorInvariantMom = T )
 pkg/cd_code              compiled but not used ( useCDscheme              = F )
 pkg/monitor              compiled   and   used ( monitorFreq > 0.         = T )
 pkg/debug                compiled but not used ( debugMode                = F )
 pkg/rw                   compiled   and   used
 pkg/mdsio                compiled   and   used
(PID.TID 0000.0001)  PACKAGES_BOOT: End of package Summary
(PID.TID 0000.0001) 
(PID.TID 0000.0001)  OBCS_READPARMS: opening data.obcs
(PID.TID 0000.0001)  OPEN_COPY_DATA_FILE: opening file data.obcs
(PID.TID 0000.0001) // =======================================================
(PID.TID 0000.0001) // Parameter file "data.obcs"
(PID.TID 0000.0001) // =======================================================
(PID.TID 0000.0001) ># Open-boundaries
(PID.TID 0000.0001) > &OBCS_PARM01
(PID.TID 0000.0001) ># This flag turns off checking and fixing problematic topography across
(PID.TID 0000.0001) ># open boundaries.
(PID.TID 0000.0001) > OBCSfixTopo=.FALSE.,
(PID.TID 0000.0001) > OB_Iwest = 20*1,
(PID.TID 0000.0001) > OB_Ieast = 20*-1,
(PID.TID 0000.0001) > OB_Jnorth= 42*-1,
(PID.TID 0000.0001) > OBWconnectFile = 'connect_obW.bin',
(PID.TID 0000.0001) > OBEconnectFile = 'connect_obE.bin',
(PID.TID 0000.0001) > OBNconnectFile = 'connect_obN.bin',
(PID.TID 0000.0001) ># OBWconnectFile = 'zeros_obX.bin',
(PID.TID 0000.0001) ># OBEconnectFile = 'zeros_obX.bin',
(PID.TID 0000.0001) ># OBNconnectFile = 'zeros_obX.bin',
(PID.TID 0000.0001) > useOBCSprescribe = .TRUE.,
(PID.TID 0000.0001) > OBCS_u1_adv_T = 1,
(PID.TID 0000.0001) > OBCS_u1_adv_S = 1,
(PID.TID 0000.0001) > OBCS_u1_adv_Tr(1:5) = 5*1,
(PID.TID 0000.0001) > OBWuFile = 'U_obW.bin',
(PID.TID 0000.0001) > OBEuFile = 'U_obE.bin',
(PID.TID 0000.0001) > OBNuFile = 'U_obN.bin',
(PID.TID 0000.0001) > OBWvFile = 'V_obW.bin',
(PID.TID 0000.0001) > OBEvFile = 'V_obE.bin',
(PID.TID 0000.0001) > OBNvFile = 'V_obN.bin',
(PID.TID 0000.0001) > OBWtFile = 'T_obW.bin',
(PID.TID 0000.0001) > OBEtFile = 'T_obE.bin',
(PID.TID 0000.0001) > OBNtFile = 'T_obN.bin',
(PID.TID 0000.0001) > OBWsFile = 'S_obW.bin',
(PID.TID 0000.0001) > OBEsFile = 'S_obE.bin',
(PID.TID 0000.0001) > OBNsFile = 'S_obN.bin',
(PID.TID 0000.0001) > OBWptrFile(1) = 'Trac01_obW.bin',
(PID.TID 0000.0001) > OBEptrFile(1) = 'Trac01_obE.bin',
(PID.TID 0000.0001) > OBNptrFile(1) = 'Trac01_obN.bin',
(PID.TID 0000.0001) > OBWptrFile(2) = 'Trac02_obW.bin',
(PID.TID 0000.0001) > OBEptrFile(2) = 'Trac02_obE.bin',
(PID.TID 0000.0001) > OBNptrFile(2) = 'Trac02_obN.bin',
(PID.TID 0000.0001) > OBWptrFile(3) = 'Trac03_obW.bin',
(PID.TID 0000.0001) > OBEptrFile(3) = 'Trac03_obE.bin',
(PID.TID 0000.0001) > OBNptrFile(3) = 'Trac03_obN.bin',
(PID.TID 0000.0001) > OBWptrFile(4) = 'Trac04_obW.bin',
(PID.TID 0000.0001) > OBEptrFile(4) = 'Trac04_obE.bin',
(PID.TID 0000.0001) > OBNptrFile(4) = 'Trac04_obN.bin',
(PID.TID 0000.0001) > OBWptrFile(5) = 'Trac05_obW.bin',
(PID.TID 0000.0001) > OBEptrFile(5) = 'Trac05_obE.bin',
(PID.TID 0000.0001) > OBNptrFile(5) = 'Trac05_obN.bin',
(PID.TID 0000.0001) >#OBCS_monitorFreq= 1200.,
(PID.TID 0000.0001) > OBCS_monSelect = 1,
(PID.TID 0000.0001) > &
(PID.TID 0000.0001) >
(PID.TID 0000.0001) ># Orlanski parameters
(PID.TID 0000.0001) > &OBCS_PARM02
(PID.TID 0000.0001) >#Cmax=0.45,
(PID.TID 0000.0001) >#cVelTimeScale=1000.,
(PID.TID 0000.0001) > &
(PID.TID 0000.0001) 
(PID.TID 0000.0001)  OBCS_READPARMS: finished reading data.obcs
(PID.TID 0000.0001)  OB_indexUnset = /* unset OB index value (i.e. no OB) */
(PID.TID 0000.0001)                       0
(PID.TID 0000.0001)     ;
(PID.TID 0000.0001)  Northern OB global indices : OB_Jnorth =
(PID.TID 0000.0001)    42 @       20                            /* I =  1: 42 */
(PID.TID 0000.0001)  Southern OB global indices : OB_Jsouth =
(PID.TID 0000.0001)    42 @        0                            /* I =  1: 42 */
(PID.TID 0000.0001)  Eastern  OB global indices : OB_Ieast =
(PID.TID 0000.0001)    20 @       42                            /* J =  1: 20 */
(PID.TID 0000.0001)  Western  OB global indices : OB_Iwest =
(PID.TID 0000.0001)    20 @        1                            /* J =  1: 20 */
(PID.TID 0000.0001) 
(PID.TID 0000.0001)  GM_READPARMS: opening data.gmredi
(PID.TID 0000.0001)  OPEN_COPY_DATA_FILE: opening file data.gmredi
(PID.TID 0000.0001) // =======================================================
(PID.TID 0000.0001) // Parameter file "data.gmredi"
(PID.TID 0000.0001) // =======================================================
(PID.TID 0000.0001) ># from MOM
(PID.TID 0000.0001) ># GM_background_K: 	isopycnal diffusion coefficien
(PID.TID 0000.0001) ># GM_maxSlope:		max slope of isopycnals
(PID.TID 0000.0001) ># GM_Scrit:		transition for scaling diffusion coefficient
(PID.TID 0000.0001) ># GM_Sd:		half width scaling for diffusion coefficient
(PID.TID 0000.0001) ># real background diff:	horizontal diffusion
(PID.TID 0000.0001) >
(PID.TID 0000.0001) ># ifdef GM_VISBECK_VARIABLE_K, include following in GM_PARM01
(PID.TID 0000.0001) ># GM_Visbeck_alpha   = 0.,
(PID.TID 0000.0001) ># GM_Visbeck_length  = 2.e+5,
(PID.TID 0000.0001) ># GM_Visbeck_depth   = 1.e+3,
(PID.TID 0000.0001) ># GM_Visbeck_maxval_K= 2.5e+3,
(PID.TID 0000.0001) >
(PID.TID 0000.0001) > &GM_PARM01
(PID.TID 0000.0001) >  GM_AdvForm         = .TRUE.,
(PID.TID 0000.0001) >  GM_background_K    = 1.e+3,
(PID.TID 0000.0001) >  GM_taper_scheme    = 'gkw91',
(PID.TID 0000.0001) >  GM_maxSlope        = 1.e-2,
(PID.TID 0000.0001) >  GM_Kmin_horiz      = 100.,
(PID.TID 0000.0001) >  GM_Scrit           = 4.e-3,
(PID.TID 0000.0001) >  GM_Sd              = 1.e-3,
(PID.TID 0000.0001) > &
(PID.TID 0000.0001) 
(PID.TID 0000.0001)  GM_READPARMS: finished reading data.gmredi
(PID.TID 0000.0001)  PTRACERS_READPARMS: opening data.ptracers
(PID.TID 0000.0001)  OPEN_COPY_DATA_FILE: opening file data.ptracers
(PID.TID 0000.0001) // =======================================================
(PID.TID 0000.0001) // Parameter file "data.ptracers"
(PID.TID 0000.0001) // =======================================================
(PID.TID 0000.0001) > &PTRACERS_PARM01
(PID.TID 0000.0001) > PTRACERS_numInUse=5,
(PID.TID 0000.0001) > PTRACERS_Iter0= 0,
(PID.TID 0000.0001) ># tracer 1 - dic
(PID.TID 0000.0001) > PTRACERS_names(1)='DIC',
(PID.TID 0000.0001) > PTRACERS_long_names(1)='Dissolved Inorganic Carbon (DIC) [mol C/m^3]',
(PID.TID 0000.0001) > PTRACERS_units(1)='mol/m^3',
(PID.TID 0000.0001) > PTRACERS_advScheme(1)=77,
(PID.TID 0000.0001) > PTRACERS_diffKh(1)=0.E3,
(PID.TID 0000.0001) > PTRACERS_diffKr(1)=3.E-5,
(PID.TID 0000.0001) > PTRACERS_useGMRedi(1)=.TRUE.,
(PID.TID 0000.0001) > PTRACERS_initialFile(1)='Trac01_ini.bin',
(PID.TID 0000.0001) >#- use F95 syntax (to be converted with -DNML_EXTENDED_F77 if needed)
(PID.TID 0000.0001) > PTRACERS_ref(1:15,1) = 2.0282, 2.0609, 2.1206, 2.1581,
(PID.TID 0000.0001) >                     2.1904, 2.2188, 2.2474, 2.2699,
(PID.TID 0000.0001) >                     2.2792, 2.2814, 2.2815, 2.2806,
(PID.TID 0000.0001) >                     2.2800, 2.2760, 2.2758,
(PID.TID 0000.0001) > PTRACERS_EvPrRn(1)= 0.,
(PID.TID 0000.0001) ># tracer 2 - alk
(PID.TID 0000.0001) > PTRACERS_names(2)='Alk',
(PID.TID 0000.0001) > PTRACERS_long_names(2)='Alkalinity (Alk) [mol eq/m^3]',
(PID.TID 0000.0001) > PTRACERS_units(2)='mol/m^3',
(PID.TID 0000.0001) > PTRACERS_advScheme(2)=77,
(PID.TID 0000.0001) > PTRACERS_diffKh(2)=0.E3,
(PID.TID 0000.0001) > PTRACERS_diffKr(2)=3.E-5,
(PID.TID 0000.0001) > PTRACERS_useGMRedi(2)=.TRUE.,
(PID.TID 0000.0001) > PTRACERS_initialFile(2)='Trac02_ini.bin',
(PID.TID 0000.0001) >#- use F95 syntax (to be converted with -DNML_EXTENDED_F77 if needed)
(PID.TID 0000.0001) > PTRACERS_ref(1:15,2) = 2.3086, 2.3149, 2.3164, 2.3112,
(PID.TID 0000.0001) >                     2.3098, 2.3160, 2.3313, 2.3517,
(PID.TID 0000.0001) >                     2.3667, 2.3761, 2.3832, 2.3862,
(PID.TID 0000.0001) >                     2.3881, 2.3863, 2.3867,
(PID.TID 0000.0001) > PTRACERS_EvPrRn(2)= 0.,
(PID.TID 0000.0001) ># tracer 3 - po4
(PID.TID 0000.0001) > PTRACERS_names(3)='PO4',
(PID.TID 0000.0001) > PTRACERS_long_names(3)='Phosphate (PO4) [mol P/m^3]',
(PID.TID 0000.0001) > PTRACERS_units(3)='mol/m^3',
(PID.TID 0000.0001) > PTRACERS_advScheme(3)=77,
(PID.TID 0000.0001) > PTRACERS_diffKh(3)=0.E3,
(PID.TID 0000.0001) > PTRACERS_diffKr(3)=3.E-5,
(PID.TID 0000.0001) > PTRACERS_useGMRedi(3)=.TRUE.,
(PID.TID 0000.0001) > PTRACERS_initialFile(3)='Trac03_ini.bin',
(PID.TID 0000.0001) >#- use F95 syntax (to be converted with -DNML_EXTENDED_F77 if needed)
(PID.TID 0000.0001) > PTRACERS_ref(1:15,3) = 0.5438E-3, 0.7821E-3, 1.1335E-3, 1.4913E-3,
(PID.TID 0000.0001) >                     1.8606E-3, 2.1986E-3, 2.3966E-3, 2.4187E-3,
(PID.TID 0000.0001) >                     2.4046E-3, 2.3291E-3, 2.2922E-3, 2.2886E-3,
(PID.TID 0000.0001) >                     2.2608E-3, 2.2356E-3, 2.2296E-3,
(PID.TID 0000.0001) >#PTRACERS_EvPrRn(3)= 0.,
(PID.TID 0000.0001) ># tracer 4 - dop
(PID.TID 0000.0001) > PTRACERS_names(4)='DOP',
(PID.TID 0000.0001) > PTRACERS_long_names(4)='Dissolved Organic Phosphorus (DOP) [mol P/m^3]',
(PID.TID 0000.0001) > PTRACERS_units(4)='mol/m^3',
(PID.TID 0000.0001) > PTRACERS_advScheme(4)=77,
(PID.TID 0000.0001) > PTRACERS_diffKh(4)=0.E3,
(PID.TID 0000.0001) > PTRACERS_diffKr(4)=3.E-5,
(PID.TID 0000.0001) > PTRACERS_useGMRedi(4)=.TRUE.,
(PID.TID 0000.0001) > PTRACERS_initialFile(4)='Trac04_ini.bin',
(PID.TID 0000.0001) >#- use F95 syntax (to be converted with -DNML_EXTENDED_F77 if needed)
(PID.TID 0000.0001) > PTRACERS_ref(1:15,4) = 15*0.,
(PID.TID 0000.0001) >#PTRACERS_EvPrRn(4)= 0.,
(PID.TID 0000.0001) ># tracer 5 - o2
(PID.TID 0000.0001) > PTRACERS_names(5)='O2',
(PID.TID 0000.0001) > PTRACERS_long_names(5)='Dissolved Oxygen (O2) [mol O/m^3]',
(PID.TID 0000.0001) > PTRACERS_units(5)='mol/m^3',
(PID.TID 0000.0001) > PTRACERS_advScheme(5)=77,
(PID.TID 0000.0001) > PTRACERS_diffKh(5)=0.E3,
(PID.TID 0000.0001) > PTRACERS_diffKr(5)=3.E-5,
(PID.TID 0000.0001) > PTRACERS_useGMRedi(5)=.TRUE.,
(PID.TID 0000.0001) > PTRACERS_initialFile(5)='Trac05_ini.bin',
(PID.TID 0000.0001) >#- use F95 syntax (to be converted with -DNML_EXTENDED_F77 if needed)
(PID.TID 0000.0001) > PTRACERS_ref(1:15,5) = 0.2457, 0.2336, 0.1975, 0.1729,
(PID.TID 0000.0001) >                     0.1591, 0.1503, 0.1424, 0.1445,
(PID.TID 0000.0001) >                     0.1549, 0.1661, 0.1774, 0.1863,
(PID.TID 0000.0001) >                     0.1925, 0.2021, 0.2051,
(PID.TID 0000.0001) >#PTRACERS_EvPrRn(5)= 0.,
(PID.TID 0000.0001) > &
(PID.TID 0000.0001) 
(PID.TID 0000.0001)  PTRACERS_READPARMS: finished reading data.ptracers
(PID.TID 0000.0001)  GCHEM_READPARMS: opening data.gchem
(PID.TID 0000.0001)  OPEN_COPY_DATA_FILE: opening file data.gchem
(PID.TID 0000.0001) // =======================================================
(PID.TID 0000.0001) // Parameter file "data.gchem"
(PID.TID 0000.0001) // =======================================================
(PID.TID 0000.0001) > &GCHEM_PARM01
(PID.TID 0000.0001) >  useDIC=.TRUE.,
(PID.TID 0000.0001) >  nsubtime=1,
(PID.TID 0000.0001) > &
(PID.TID 0000.0001) 
(PID.TID 0000.0001)  GCHEM_READPARMS: finished reading data.gchem
(PID.TID 0000.0001)  DIC_READPARMS: opening data.dic
(PID.TID 0000.0001)  OPEN_COPY_DATA_FILE: opening file data.dic
(PID.TID 0000.0001) // =======================================================
(PID.TID 0000.0001) // Parameter file "data.dic"
(PID.TID 0000.0001) // =======================================================
(PID.TID 0000.0001) ># DIC parameters
(PID.TID 0000.0001) > &ABIOTIC_PARMS
(PID.TID 0000.0001) > &
(PID.TID 0000.0001) >
(PID.TID 0000.0001) > &BIOTIC_PARMS
(PID.TID 0000.0001) >  alphaUniform = 0.97e-10,
(PID.TID 0000.0001) >  rainRatioUniform = 5.e-2,
(PID.TID 0000.0001) >  KRemin = 0.95,
(PID.TID 0000.0001) > &
(PID.TID 0000.0001) >
(PID.TID 0000.0001) > &DIC_FORCING
(PID.TID 0000.0001) >  DIC_iceFile='fice_box.bin',
(PID.TID 0000.0001) >  DIC_windFile='tren_speed_box.bin',
(PID.TID 0000.0001) >  DIC_silicaFile='sillev1_box.bin',
(PID.TID 0000.0001) > &
(PID.TID 0000.0001) 
(PID.TID 0000.0001)  DIC_READPARMS: finished reading data.dic
(PID.TID 0000.0001) 
(PID.TID 0000.0001) // ===================================
(PID.TID 0000.0001) // DIC package parameters :
(PID.TID 0000.0001) // ===================================
(PID.TID 0000.0001) permil = /* Ref. density to convert mol/m3 to mol/kg */
(PID.TID 0000.0001)                 9.760858955588092E-04
(PID.TID 0000.0001)     ;
(PID.TID 0000.0001) Pa2Atm = /* Atmosph. pressure conversion coeff (to Atm) */
(PID.TID 0000.0001)                 1.013250000000000E+05
(PID.TID 0000.0001)     ;
(PID.TID 0000.0001) DOPfraction = /* Fraction of new production going to DOP */
(PID.TID 0000.0001)                 6.700000000000000E-01
(PID.TID 0000.0001)     ;
(PID.TID 0000.0001) KDOPRemin = /* DOP remineralization rate (1/s) */
(PID.TID 0000.0001)                 6.430041152263375E-08
(PID.TID 0000.0001)     ;
(PID.TID 0000.0001) KRemin = /* Remin power law coeff. */
(PID.TID 0000.0001)                 9.500000000000000E-01
(PID.TID 0000.0001)     ;
(PID.TID 0000.0001) zcrit = /* Minimum depth for biological activity (m) */
(PID.TID 0000.0001)                 5.000000000000000E+02
(PID.TID 0000.0001)     ;
(PID.TID 0000.0001) O2crit = /* Critical oxygen level (mol/m3) */
(PID.TID 0000.0001)                 4.000000000000000E-03
(PID.TID 0000.0001)     ;
(PID.TID 0000.0001) R_OP = /* Stochiometric ratio R_OP */
(PID.TID 0000.0001)                -1.700000000000000E+02
(PID.TID 0000.0001)     ;
(PID.TID 0000.0001) R_CP = /* Stochiometric ratio R_CP */
(PID.TID 0000.0001)                 1.170000000000000E+02
(PID.TID 0000.0001)     ;
(PID.TID 0000.0001) R_NP = /* Stochiometric ratio R_NP */
(PID.TID 0000.0001)                 1.600000000000000E+01
(PID.TID 0000.0001)     ;
(PID.TID 0000.0001) R_FeP = /* Stochiometric ratio R_FeP */
(PID.TID 0000.0001)                 4.680000000000000E-04
(PID.TID 0000.0001)     ;
(PID.TID 0000.0001) zca = /* Scale depth for CaCO3 remineralization (m) */
(PID.TID 0000.0001)                 3.500000000000000E+03
(PID.TID 0000.0001)     ;
(PID.TID 0000.0001) parfrac = /* Fraction of Qsw that is PAR */
(PID.TID 0000.0001)                 4.000000000000000E-01
(PID.TID 0000.0001)     ;
(PID.TID 0000.0001) k0 = /* Light attentuation coefficient, water (1/m) */
(PID.TID 0000.0001)                 2.000000000000000E-02
(PID.TID 0000.0001)     ;
(PID.TID 0000.0001) kchl = /* Light attentuation coefficient, chlorophyll (m2/mg) */
(PID.TID 0000.0001)                 2.000000000000000E-02
(PID.TID 0000.0001)     ;
(PID.TID 0000.0001) lit0 = /* Half saturation light constant (W/m2) */
(PID.TID 0000.0001)                 3.000000000000000E+01
(PID.TID 0000.0001)     ;
(PID.TID 0000.0001) KPO4 = /* Half saturation phosphate constant (mol/m3) */
(PID.TID 0000.0001)                 5.000000000000000E-04
(PID.TID 0000.0001)     ;
(PID.TID 0000.0001) KFE = /* Half saturation fe constant (mol/m3) */
(PID.TID 0000.0001)                 1.200000000000000E-07
(PID.TID 0000.0001)     ;
(PID.TID 0000.0001) alpfe = /* Solubility of aeolian fe */
(PID.TID 0000.0001)                 1.000000000000000E-02
(PID.TID 0000.0001)     ;
(PID.TID 0000.0001) fesedflux_pcm = /* Sediment Fe flux = fesedflux_pcm*pflux+FeIntSec */
(PID.TID 0000.0001)                 6.415094339622642E-06
(PID.TID 0000.0001)     ;
(PID.TID 0000.0001) FeIntSec = /* Sediment Fe flux = fesedflux_pcm * pflux + FeIntSec */
(PID.TID 0000.0001)                 5.787037037037037E-12
(PID.TID 0000.0001)     ;
(PID.TID 0000.0001) freefemax = /* Max solubility of free iron (mol/m3) */
(PID.TID 0000.0001)                 3.000000000000000E-07
(PID.TID 0000.0001)     ;
(PID.TID 0000.0001) KScav = /* Iron scavenging rate */
(PID.TID 0000.0001)                 6.108539094650206E-09
(PID.TID 0000.0001)     ;
(PID.TID 0000.0001) ligand_stab = /* Ligand-free iron stability constant (m3/mol) */
(PID.TID 0000.0001)                 1.000000000000000E+08
(PID.TID 0000.0001)     ;
(PID.TID 0000.0001) ligand_tot = /* Total free ligand  (mol/m3) */
(PID.TID 0000.0001)                 1.000000000000000E-06
(PID.TID 0000.0001)     ;
(PID.TID 0000.0001) alphaUniform = /* Timescale for biological activity */
(PID.TID 0000.0001)                 9.700000000000000E-11
(PID.TID 0000.0001)     ;
(PID.TID 0000.0001) rainRatioUniform= /* Inorganic/organic carbon rain ratio */
(PID.TID 0000.0001)                 5.000000000000000E-02
(PID.TID 0000.0001)     ;
(PID.TID 0000.0001) QSW_underice  =  /* Flag for Qsw under Sea-Ice (i.e. SI fract included) */
(PID.TID 0000.0001)                   F
(PID.TID 0000.0001)     ;
(PID.TID 0000.0001) DIC_windFile =  /* File name of wind speeds */
(PID.TID 0000.0001)               'tren_speed_box.bin'
(PID.TID 0000.0001)     ;
(PID.TID 0000.0001) DIC_atmospFile=  /* File name of atmospheric pressure*/
(PID.TID 0000.0001)               ''
(PID.TID 0000.0001)     ;
(PID.TID 0000.0001) DIC_iceFile =  /* File name of seaice fraction */
(PID.TID 0000.0001)               'fice_box.bin'
(PID.TID 0000.0001)     ;
(PID.TID 0000.0001) DIC_ironFile =  /* File name of aeolian iron flux */
(PID.TID 0000.0001)               ''
(PID.TID 0000.0001)     ;
(PID.TID 0000.0001) DIC_silicaFile=  /* File name of surface silica */
(PID.TID 0000.0001)               'sillev1_box.bin'
(PID.TID 0000.0001)     ;
(PID.TID 0000.0001) DIC_parFile=  /* File name of photosynthetically available radiation */
(PID.TID 0000.0001)               ''
(PID.TID 0000.0001)     ;
(PID.TID 0000.0001) DIC_chlaFile=  /* File name of chlorophyll climatology */
(PID.TID 0000.0001)               ''
(PID.TID 0000.0001)     ;
(PID.TID 0000.0001) DIC_forcingPeriod = /* Periodic forcing parameter specific for DIC (s) */
(PID.TID 0000.0001)                 2.592000000000000E+06
(PID.TID 0000.0001)     ;
(PID.TID 0000.0001) DIC_forcingCycle = /* Periodic forcing parameter specific for DIC (s) */
(PID.TID 0000.0001)                 3.110400000000000E+07
(PID.TID 0000.0001)     ;
(PID.TID 0000.0001) dic_int1 =  /*  */
(PID.TID 0000.0001)                       0
(PID.TID 0000.0001)     ;
(PID.TID 0000.0001) dic_int2 =  /*  */
(PID.TID 0000.0001)                       0
(PID.TID 0000.0001)     ;
(PID.TID 0000.0001) dic_int3 =  /*  */
(PID.TID 0000.0001)                       0
(PID.TID 0000.0001)     ;
(PID.TID 0000.0001) dic_int4 =  /*  */
(PID.TID 0000.0001)                       0
(PID.TID 0000.0001)     ;
(PID.TID 0000.0001) dic_pCO2 = /* Atmospheric pCO2 to be read in data.dic */
(PID.TID 0000.0001)                 2.780000000000000E-04
(PID.TID 0000.0001)     ;
(PID.TID 0000.0001)  DIAGNOSTICS_READPARMS: opening data.diagnostics
(PID.TID 0000.0001)  OPEN_COPY_DATA_FILE: opening file data.diagnostics
(PID.TID 0000.0001) // =======================================================
(PID.TID 0000.0001) // Parameter file "data.diagnostics"
(PID.TID 0000.0001) // =======================================================
(PID.TID 0000.0001) ># Diagnostic Package Choices
(PID.TID 0000.0001) >#--------------------
(PID.TID 0000.0001) >#  dumpAtLast (logical): always write output at the end of simulation (default=F)
(PID.TID 0000.0001) >#  diag_mnc   (logical): write to NetCDF files (default=useMNC)
(PID.TID 0000.0001) >#--for each output-stream:
(PID.TID 0000.0001) >#  fileName(n) : prefix of the output file name (max 80c long) for outp.stream n
(PID.TID 0000.0001) >#  frequency(n):< 0 : write snap-shot output every |frequency| seconds
(PID.TID 0000.0001) >#               > 0 : write time-average output every frequency seconds
(PID.TID 0000.0001) >#  timePhase(n)     : write at time = timePhase + multiple of |frequency|
(PID.TID 0000.0001) >#    averagingFreq  : frequency (in s) for periodic averaging interval
(PID.TID 0000.0001) >#    averagingPhase : phase     (in s) for periodic averaging interval
(PID.TID 0000.0001) >#    repeatCycle    : number of averaging intervals in 1 cycle
(PID.TID 0000.0001) >#  levels(:,n) : list of levels to write to file (Notes: declared as REAL)
(PID.TID 0000.0001) >#                when this entry is missing, select all common levels of this list
(PID.TID 0000.0001) >#  fields(:,n) : list of selected diagnostics fields (8.c) in outp.stream n
(PID.TID 0000.0001) >#                (see "available_diagnostics.log" file for the full list of diags)
(PID.TID 0000.0001) >#  missing_value(n) : missing value for real-type fields in output file "n"
(PID.TID 0000.0001) >#  fileFlags(n)     : specific code (8c string) for output file "n"
(PID.TID 0000.0001) >#--------------------
(PID.TID 0000.0001) > &DIAGNOSTICS_LIST
(PID.TID 0000.0001) ># diagCG_maxIters = 200,
(PID.TID 0000.0001) ># diagCG_resTarget = 1.E-10,
(PID.TID 0000.0001) ># diagCG_pcOffDFac = 0.96,
(PID.TID 0000.0001) ># diagCG_prtResFrq = 20,
(PID.TID 0000.0001) >  xPsi0 = 300.,
(PID.TID 0000.0001) >  yPsi0 = -26.,
(PID.TID 0000.0001) >#--
(PID.TID 0000.0001) >  fields(1:10,1) = 'ETAN    ','ETANSQ  ','DETADT2 ','PHIBOT  ','PHIBOTSQ',
(PID.TID 0000.0001) >                   'DICTFLX ','DICOFLX ','DICCFLX ','DICPCO2 ','DICPHAV ',
(PID.TID 0000.0001) >  levels(1,1) = 1.,
(PID.TID 0000.0001) >  fileName(1) = 'surfDiag',
(PID.TID 0000.0001) >  timePhase(1)= 0.,
(PID.TID 0000.0001) >#  frequency(1) = 2592000.,
(PID.TID 0000.0001) >  frequency(1) = -3600.,
(PID.TID 0000.0001) >  fields(1:9,2)  = 'VVELMASS','UVELMASS','THETA   ','SALT    ',
(PID.TID 0000.0001) >                   'GM_PsiX ','GM_PsiY ','PhiVEL  ','PsiVEL  ',
(PID.TID 0000.0001) >                   'CONVADJ ',
(PID.TID 0000.0001) >  fileName(2) = 'dynDiag',
(PID.TID 0000.0001) >  timePhase(2) = 900.,
(PID.TID 0000.0001) >  frequency(2) = 3600.,
(PID.TID 0000.0001) >#  fields(1:9,3)  = 'DICBIOA ','DICCARB ',
(PID.TID 0000.0001) >#                   'TRAC01  ','TRAC02  ','TRAC03  ','TRAC04  ','TRAC05  ',
(PID.TID 0000.0001) >#                   'ADVxTr05','DFrITr05',
(PID.TID 0000.0001) >#  fileName(3) = 'dicDiag',
(PID.TID 0000.0001) >#  frequency(3) = 3600.,
(PID.TID 0000.0001) >#  frequency(3) = 2592000.,
(PID.TID 0000.0001) >#  fields(1:8,4)  = 'ADVx_TH ','ADVy_TH ','ADVr_TH ',
(PID.TID 0000.0001) >#                   'DFxE_TH ','DFyE_TH ','DFrE_TH ','DFrI_TH ',
(PID.TID 0000.0001) >#                   'ADVx_SLT',
(PID.TID 0000.0001) >#  fileName(4) = 'flxDiag',
(PID.TID 0000.0001) >#  frequency(4) = 0.,
(PID.TID 0000.0001) >  fields(1:1,3)  = 'oceFWflx',
(PID.TID 0000.0001) >  fileName(3) = 'oceFWflx',
(PID.TID 0000.0001) >  levels(1,3) = 1.,
(PID.TID 0000.0001) >  timePhase(3) = 900.,
(PID.TID 0000.0001) >  frequency(3) = 3600.,
(PID.TID 0000.0001) > &
(PID.TID 0000.0001) >
(PID.TID 0000.0001) >#--------------------
(PID.TID 0000.0001) ># Parameter for Diagnostics of per level statistics:
(PID.TID 0000.0001) >#--------------------
(PID.TID 0000.0001) >#  diagSt_mnc (logical): write stat-diags to NetCDF files (default=diag_mnc)
(PID.TID 0000.0001) >#  diagSt_regMaskFile : file containing the region-mask to read-in
(PID.TID 0000.0001) >#  nSetRegMskFile   : number of region-mask sets within the region-mask file
(PID.TID 0000.0001) >#  set_regMask(i)   : region-mask set-index that identifies the region "i"
(PID.TID 0000.0001) >#  val_regMask(i)   : region "i" identifier value in the region mask
(PID.TID 0000.0001) >#--for each output-stream:
(PID.TID 0000.0001) >#  stat_fName(n) : prefix of the output file name (max 80c long) for outp.stream n
(PID.TID 0000.0001) >#  stat_freq(n):< 0 : write snap-shot output every |stat_freq| seconds
(PID.TID 0000.0001) >#               > 0 : write time-average output every stat_freq seconds
(PID.TID 0000.0001) >#  stat_phase(n)    : write at time = stat_phase + multiple of |stat_freq|
(PID.TID 0000.0001) >#  stat_region(:,n) : list of "regions" (default: 1 region only=global)
(PID.TID 0000.0001) >#  stat_fields(:,n) : list of selected diagnostics fields (8.c) in outp.stream n
(PID.TID 0000.0001) >#                (see "available_diagnostics.log" file for the full list of diags)
(PID.TID 0000.0001) >#--------------------
(PID.TID 0000.0001) > &DIAG_STATIS_PARMS
(PID.TID 0000.0001) >#---
(PID.TID 0000.0001) > stat_fields(1:15,1) = 'ETAN    ','DETADT2 ','THETA   ','SALT    ','CONVADJ ',
(PID.TID 0000.0001) >                       'UVEL    ','VVEL    ','WVEL    ','GM_PsiX ','GM_PsiY ',
(PID.TID 0000.0001) >                       'TRAC01  ','TRAC02  ','TRAC03  ','TRAC04  ','TRAC05  ',
(PID.TID 0000.0001) >  stat_fName(1) = 'dynStDiag',
(PID.TID 0000.0001) >   stat_freq(1) = 432000.,
(PID.TID 0000.0001) >  stat_phase(1) = 0.,
(PID.TID 0000.0001) > &
(PID.TID 0000.0001) 
(PID.TID 0000.0001) S/R DIAGNOSTICS_READPARMS, read namelist "diagnostics_list": start
(PID.TID 0000.0001) S/R DIAGNOSTICS_READPARMS, read namelist "diagnostics_list": OK
(PID.TID 0000.0001) S/R DIAGNOSTICS_READPARMS, read namelist "DIAG_STATIS_PARMS": start
(PID.TID 0000.0001) S/R DIAGNOSTICS_READPARMS, read namelist "DIAG_STATIS_PARMS": OK
(PID.TID 0000.0001)  DIAGNOSTICS_READPARMS: global parameter summary:
(PID.TID 0000.0001)  dumpAtLast = /* always write time-ave diags at the end */
(PID.TID 0000.0001)                   F
(PID.TID 0000.0001)     ;
(PID.TID 0000.0001)  diag_mnc =   /* write NetCDF output files */
(PID.TID 0000.0001)                   F
(PID.TID 0000.0001)     ;
(PID.TID 0000.0001)  useMissingValue = /* put MissingValue where mask = 0 */
(PID.TID 0000.0001)                   F
(PID.TID 0000.0001)     ;
(PID.TID 0000.0001)  diagCG_maxIters = /* max number of iters in diag_cg2d */
(PID.TID 0000.0001)                    1000
(PID.TID 0000.0001)     ;
(PID.TID 0000.0001)  diagCG_resTarget = /* residual target for diag_cg2d */
(PID.TID 0000.0001)                 1.000000000000000E-13
(PID.TID 0000.0001)     ;
(PID.TID 0000.0001)  diagCG_pcOffDFac = /* preconditioner off-diagonal factor */
(PID.TID 0000.0001)                 9.611687812379854E-01
(PID.TID 0000.0001)     ;
(PID.TID 0000.0001) -----------------------------------------------------
(PID.TID 0000.0001)  DIAGNOSTICS_READPARMS: active diagnostics summary:
(PID.TID 0000.0001) -----------------------------------------------------
(PID.TID 0000.0001) Creating Output Stream: surfDiag
(PID.TID 0000.0001) Output Frequency:      -3600.000000 ; Phase:           0.000000
(PID.TID 0000.0001)  Averaging Freq.:          0.000000 , Phase:           0.000000 , Cycle:   1
(PID.TID 0000.0001)  missing value: -9.990000000000E+02
(PID.TID 0000.0001)  Levels:       1.
(PID.TID 0000.0001)  Fields:    ETAN     ETANSQ   DETADT2  PHIBOT   PHIBOTSQ DICTFLX  DICOFLX  DICCFLX  DICPCO2  DICPHAV
(PID.TID 0000.0001) Creating Output Stream: dynDiag
(PID.TID 0000.0001) Output Frequency:       3600.000000 ; Phase:         900.000000
(PID.TID 0000.0001)  Averaging Freq.:       3600.000000 , Phase:         900.000000 , Cycle:   1
(PID.TID 0000.0001)  missing value: -9.990000000000E+02
(PID.TID 0000.0001)  Levels:    will be set later
(PID.TID 0000.0001)  Fields:    VVELMASS UVELMASS THETA    SALT     GM_PsiX  GM_PsiY  PhiVEL   PsiVEL   CONVADJ
(PID.TID 0000.0001) Creating Output Stream: oceFWflx
(PID.TID 0000.0001) Output Frequency:       3600.000000 ; Phase:         900.000000
(PID.TID 0000.0001)  Averaging Freq.:       3600.000000 , Phase:         900.000000 , Cycle:   1
(PID.TID 0000.0001)  missing value: -9.990000000000E+02
(PID.TID 0000.0001)  Levels:       1.
(PID.TID 0000.0001)  Fields:    oceFWflx
(PID.TID 0000.0001) -----------------------------------------------------
(PID.TID 0000.0001)  DIAGNOSTICS_READPARMS: statistics diags. summary:
(PID.TID 0000.0001) Creating Stats. Output Stream: dynStDiag
(PID.TID 0000.0001) Output Frequency:     432000.000000 ; Phase:           0.000000
(PID.TID 0000.0001)  Regions:   0
(PID.TID 0000.0001)  Fields:    ETAN     DETADT2  THETA    SALT     CONVADJ  UVEL     VVEL     WVEL     GM_PsiX  GM_PsiY
(PID.TID 0000.0001)  Fields:    TRAC01   TRAC02   TRAC03   TRAC04   TRAC05
(PID.TID 0000.0001) -----------------------------------------------------
(PID.TID 0000.0001) 
(PID.TID 0000.0001) SET_PARMS: done
(PID.TID 0000.0001) Enter INI_VERTICAL_GRID: setInterFDr=    T ; setCenterDr=    F
(PID.TID 0000.0001) %MON XC_max                       =   3.5296875000000E+02
(PID.TID 0000.0001) %MON XC_min                       =   2.3765625000000E+02
(PID.TID 0000.0001) %MON XC_mean                      =   2.9531250000000E+02
(PID.TID 0000.0001) %MON XC_sd                        =   3.4090083441706E+01
(PID.TID 0000.0001) %MON XG_max                       =   3.5156250000000E+02
(PID.TID 0000.0001) %MON XG_min                       =   2.3625000000000E+02
(PID.TID 0000.0001) %MON XG_mean                      =   2.9390625000000E+02
(PID.TID 0000.0001) %MON XG_sd                        =   3.4090083441706E+01
(PID.TID 0000.0001) %MON DXC_max                      =   2.7929930890376E+05
(PID.TID 0000.0001) %MON DXC_min                      =   5.3457499214614E+04
(PID.TID 0000.0001) %MON DXC_mean                     =   1.7889438140789E+05
(PID.TID 0000.0001) %MON DXC_sd                       =   6.9711490203249E+04
(PID.TID 0000.0001) %MON DXF_max                      =   2.7929930890376E+05
(PID.TID 0000.0001) %MON DXF_min                      =   5.3457499214614E+04
(PID.TID 0000.0001) %MON DXF_mean                     =   1.7889438140789E+05
(PID.TID 0000.0001) %MON DXF_sd                       =   6.9711490203249E+04
(PID.TID 0000.0001) %MON DXG_max                      =   2.7576500024724E+05
(PID.TID 0000.0001) %MON DXG_min                      =   4.5880659601012E+04
(PID.TID 0000.0001) %MON DXG_mean                     =   1.7292088380237E+05
(PID.TID 0000.0001) %MON DXG_sd                       =   7.0928664230424E+04
(PID.TID 0000.0001) %MON DXV_max                      =   2.7576500024724E+05
(PID.TID 0000.0001) %MON DXV_min                      =   4.5880659601012E+04
(PID.TID 0000.0001) %MON DXV_mean                     =   1.7292088380237E+05
(PID.TID 0000.0001) %MON DXV_sd                       =   7.0928664230424E+04
(PID.TID 0000.0001) %MON YC_max                       =  -2.6718750000000E+01
(PID.TID 0000.0001) %MON YC_min                       =  -8.0156250000000E+01
(PID.TID 0000.0001) %MON YC_mean                      =  -5.3437500000000E+01
(PID.TID 0000.0001) %MON YC_sd                        =   1.6217666148756E+01
(PID.TID 0000.0001) %MON YG_max                       =  -2.8125000000000E+01
(PID.TID 0000.0001) %MON YG_min                       =  -8.1562500000000E+01
(PID.TID 0000.0001) %MON YG_mean                      =  -5.4843750000000E+01
(PID.TID 0000.0001) %MON YG_sd                        =   1.6217666148756E+01
(PID.TID 0000.0001) %MON DYC_max                      =   3.1268664380261E+05
(PID.TID 0000.0001) %MON DYC_min                      =   3.1268664380261E+05
(PID.TID 0000.0001) %MON DYC_mean                     =   3.1268664380261E+05
(PID.TID 0000.0001) %MON DYC_sd                       =   6.9849193096161E-10
(PID.TID 0000.0001) %MON DYF_max                      =   3.1268664380261E+05
(PID.TID 0000.0001) %MON DYF_min                      =   3.1268664380261E+05
(PID.TID 0000.0001) %MON DYF_mean                     =   3.1268664380261E+05
(PID.TID 0000.0001) %MON DYF_sd                       =   6.9849193096161E-10
(PID.TID 0000.0001) %MON DYG_max                      =   3.1268664380261E+05
(PID.TID 0000.0001) %MON DYG_min                      =   3.1268664380261E+05
(PID.TID 0000.0001) %MON DYG_mean                     =   3.1268664380261E+05
(PID.TID 0000.0001) %MON DYG_sd                       =   6.9849193096161E-10
(PID.TID 0000.0001) %MON DYU_max                      =   3.1268664380261E+05
(PID.TID 0000.0001) %MON DYU_min                      =   3.1268664380261E+05
(PID.TID 0000.0001) %MON DYU_mean                     =   3.1268664380261E+05
(PID.TID 0000.0001) %MON DYU_sd                       =   6.9849193096161E-10
(PID.TID 0000.0001) %MON RA_max                       =   8.7324395636096E+10
(PID.TID 0000.0001) %MON RA_min                       =   1.6713767855193E+10
(PID.TID 0000.0001) %MON RA_mean                      =   5.5932267789893E+10
(PID.TID 0000.0001) %MON RA_sd                        =   2.1795663493704E+10
(PID.TID 0000.0001) %MON RAW_max                      =   8.7324395636096E+10
(PID.TID 0000.0001) %MON RAW_min                      =   1.6713767855193E+10
(PID.TID 0000.0001) %MON RAW_mean                     =   5.5932267789893E+10
(PID.TID 0000.0001) %MON RAW_sd                       =   2.1795663493704E+10
(PID.TID 0000.0001) %MON RAS_max                      =   8.6219375474631E+10
(PID.TID 0000.0001) %MON RAS_min                      =   1.4344829161122E+10
(PID.TID 0000.0001) %MON RAS_mean                     =   5.4064622394411E+10
(PID.TID 0000.0001) %MON RAS_sd                       =   2.2176219345146E+10
(PID.TID 0000.0001) %MON RAZ_max                      =   8.6219375474631E+10
(PID.TID 0000.0001) %MON RAZ_min                      =   1.4344829161122E+10
(PID.TID 0000.0001) %MON RAZ_mean                     =   5.4064622394411E+10
(PID.TID 0000.0001) %MON RAZ_sd                       =   2.2176219345146E+10
(PID.TID 0000.0001) %MON AngleCS_max                  =   1.0000000000000E+00
(PID.TID 0000.0001) %MON AngleCS_min                  =   1.0000000000000E+00
(PID.TID 0000.0001) %MON AngleCS_mean                 =   1.0000000000000E+00
(PID.TID 0000.0001) %MON AngleCS_sd                   =   0.0000000000000E+00
(PID.TID 0000.0001) %MON AngleSN_max                  =   0.0000000000000E+00
(PID.TID 0000.0001) %MON AngleSN_min                  =   0.0000000000000E+00
(PID.TID 0000.0001) %MON AngleSN_mean                 =   0.0000000000000E+00
(PID.TID 0000.0001) %MON AngleSN_sd                   =   0.0000000000000E+00
(PID.TID 0000.0001)  MDS_READ_FIELD: opening global file: bathy_box.bin
(PID.TID 0000.0001) // =======================================================
(PID.TID 0000.0001) // Field Model R_low (ini_masks_etc)
(PID.TID 0000.0001) // CMIN =         -5.200000000000000E+03
(PID.TID 0000.0001) // CMAX =         -5.000000000000000E+01
(PID.TID 0000.0001) // CINT =          1.907407407407407E+02
(PID.TID 0000.0001) // SYMBOLS (CMIN->CMAX): -abcdefghijklmnopqrstuvwxyz+
(PID.TID 0000.0001) //                  0.0: .
(PID.TID 0000.0001) // RANGE I (Lo:Hi:Step):(    -2:    45:     1)
(PID.TID 0000.0001) // RANGE J (Lo:Hi:Step):(    23:    -2:    -1)
(PID.TID 0000.0001) // RANGE K (Lo:Hi:Step):(   1:   1:   1)
(PID.TID 0000.0001) // =======================================================
(PID.TID 0000.0001) K =   1
(PID.TID 0000.0001) //                I=7       I=17      I=21      I=31      I=35      I=45
(PID.TID 0000.0001) // |--J--|210123456|890123456|234567890|234567890|678901234|678901234|
(PID.TID 0000.0001) //     23 ...............................+yyyyyyyyyyyyyyxxxyy.........
(PID.TID 0000.0001) //     22 ...............................++zz..zyxz..zyxy.............
(PID.TID 0000.0001) //     21 ............................................................
(PID.TID 0000.0001) //     20 kfeijklmkkjiiihihgffhihgffff........zole..zoledcaabdfhkfeijk
(PID.TID 0000.0001) //     19 lhehijlmkjihhhihggfeihggfeev........ohgf..ohgfqihdddfilhehij
(PID.TID 0000.0001) //     18 kfehhikmjjihhhihggfeihggfef+.......shgff.shgfflgiddfhkkfehhi
(PID.TID 0000.0001) //     17 jggfhhjmjiiiiihgggffhgggfff.......xfbbbdxfbbbdddffggjkjggfhh
(PID.TID 0000.0001) //     16 ljjeegjmjgfgijihggffihggffp......zfa-aaafa-aaaddddfgklljjeeg
(PID.TID 0000.0001) //     15 jhgeehkmihfefijihgggjihgggy......h------------abddfhkljhgeeh
(PID.TID 0000.0001) //     14 jggfghkljigeeefgikiifgikii+...++p---aaa---aaa--adddgjkjggfgh
(PID.TID 0000.0001) //     13 llifgjlljhgeeeeffhjkeffhjk....++j---------------addfgkllifgj
(PID.TID 0000.0001) //     12 jllhiklkihfedddddefidddefi....+zsqmb-afamb-afaaabddffhjllhik
(PID.TID 0000.0001) //     11 hjnjmljhhfedddddddfgddddfgj..+zzsqpnnqjipnnqjigifffdefhjnjml
(PID.TID 0000.0001) //     10 fijmljhhgeddddaadddfaadddfjlllkjihggjkmwggjkmwvjddfddefijmlj
(PID.TID 0000.0001) //      9 ffhggdddddccdddddddddddddddfihggggggkkjkggkkjkkjjodddeffhggd
(PID.TID 0000.0001) //      8 aa-baddaaaaaaaaabbbdaabbbddeghhgilolvxomolvxomnllkefgdaa-bad
(PID.TID 0000.0001) //     13 llifgjlljhgeeeeffhjkeffhjk....++j---------------addfgkllifgj
(PID.TID 0000.0001) //     12 jllhiklkihfedddddefidddefi....+zsqmb-afamb-afaaabddffhjllhik
(PID.TID 0000.0001) //     11 hjnjmljhhfedddddddfgddddfgj..+zzsqpnnqjipnnqjigifffdefhjnjml
(PID.TID 0000.0001) //     10 fijmljhhgeddddaadddfaadddfjlllkjihggjkmwggjkmwvjddfddefijmlj
(PID.TID 0000.0001) //      9 ffhggdddddccdddddddddddddddfihggggggkkjkggkkjkkjjodddeffhggd
(PID.TID 0000.0001) //      8 aa-baddaaaaaaaaabbbdaabbbddeghhgilolvxomolvxomnllkefgdaa-bad
(PID.TID 0000.0001) //      7 ---aaaaaddaaabdddddedddddefgill..zqjkigdqjkigddddddbaa---aaa
(PID.TID 0000.0001) //      6 aadddddddddddddddeegdddeeghpy...yxnhgeddnhgedddddddbaaaadddd
(PID.TID 0000.0001) //      5 dgnhigghffeddffilloxfilloxy....zyxoihgggoihgggdddddddddgnhig
(PID.TID 0000.0001) //      4 z..npvwvvwy++yyyyxxzyyyxxz......ywttqmigttqmigghggfflyz..npv
(PID.TID 0000.0001) //      3 ...............................+yyyyyyyyyyyyyyxxxyy.........
(PID.TID 0000.0001) //      2 ...............................++zz..zyxz..zyxy.............
(PID.TID 0000.0001) //      1 ............................................................
(PID.TID 0000.0001) //      0 kfeijklmkkjiiihihgffhihgffff........zole..zoledcaabdfhkfeijk
(PID.TID 0000.0001) //     -1 lhehijlmkjihhhihggfeihggfeev........ohgf..ohgfqihdddfilhehij
(PID.TID 0000.0001) //     -2 kfehhikmjjihhhihggfeihggfef+.......shgff.shgfflgiddfhkkfehhi
(PID.TID 0000.0001) // =======================================================
(PID.TID 0000.0001) // END OF FIELD                                          =
(PID.TID 0000.0001) // =======================================================
(PID.TID 0000.0001) 
(PID.TID 0000.0001) // =======================================================
(PID.TID 0000.0001) // Field Model Ro_surf (ini_masks_etc)
(PID.TID 0000.0001) // CMIN =          1.000000000000000E+32
(PID.TID 0000.0001) // CMAX =         -1.000000000000000E+32
(PID.TID 0000.0001) // CINT =          0.000000000000000E+00
(PID.TID 0000.0001) // SYMBOLS (CMIN->CMAX): -abcdefghijklmnopqrstuvwxyz+
(PID.TID 0000.0001) //                  0.0: .
(PID.TID 0000.0001) // RANGE I (Lo:Hi:Step):(    -2:    45:     1)
(PID.TID 0000.0001) // RANGE J (Lo:Hi:Step):(    23:    -2:    -1)
(PID.TID 0000.0001) // RANGE K (Lo:Hi:Step):(   1:   1:   1)
(PID.TID 0000.0001) // =======================================================
(PID.TID 0000.0001) // =======================================================
(PID.TID 0000.0001) // END OF FIELD                                          =
(PID.TID 0000.0001) // =======================================================
(PID.TID 0000.0001) 
(PID.TID 0000.0001) // =======================================================
(PID.TID 0000.0001) // Field hFacC at iteration          0
(PID.TID 0000.0001) // CMIN =          1.000000000000000E+00
(PID.TID 0000.0001) // CMAX =          1.000000000000000E+00
(PID.TID 0000.0001) // CINT =          0.000000000000000E+00
(PID.TID 0000.0001) // SYMBOLS (CMIN->CMAX): -abcdefghijklmnopqrstuvwxyz+
(PID.TID 0000.0001) //                  0.0: .
(PID.TID 0000.0001) // RANGE I (Lo:Hi:Step):(    -2:    45:     1)
(PID.TID 0000.0001) // RANGE J (Lo:Hi:Step):(    23:    -2:    -1)
(PID.TID 0000.0001) // RANGE K (Lo:Hi:Step):(   1:   1:   1)
(PID.TID 0000.0001) // =======================================================
(PID.TID 0000.0001) // =======================================================
(PID.TID 0000.0001) // END OF FIELD                                          =
(PID.TID 0000.0001) // =======================================================
(PID.TID 0000.0001) 
(PID.TID 0000.0001) // =======================================================
(PID.TID 0000.0001) // Field hFacW at iteration          0
(PID.TID 0000.0001) // CMIN =          1.000000000000000E+00
(PID.TID 0000.0001) // CMAX =          1.000000000000000E+00
(PID.TID 0000.0001) // CINT =          0.000000000000000E+00
(PID.TID 0000.0001) // SYMBOLS (CMIN->CMAX): -abcdefghijklmnopqrstuvwxyz+
(PID.TID 0000.0001) //                  0.0: .
(PID.TID 0000.0001) // RANGE I (Lo:Hi:Step):(    -2:    45:     1)
(PID.TID 0000.0001) // RANGE J (Lo:Hi:Step):(    23:    -2:    -1)
(PID.TID 0000.0001) // RANGE K (Lo:Hi:Step):(   1:   1:   1)
(PID.TID 0000.0001) // =======================================================
(PID.TID 0000.0001) // =======================================================
(PID.TID 0000.0001) // END OF FIELD                                          =
(PID.TID 0000.0001) // =======================================================
(PID.TID 0000.0001) 
(PID.TID 0000.0001) // =======================================================
(PID.TID 0000.0001) // Field hFacS at iteration          0
(PID.TID 0000.0001) // CMIN =          1.000000000000000E+00
(PID.TID 0000.0001) // CMAX =          1.000000000000000E+00
(PID.TID 0000.0001) // CINT =          0.000000000000000E+00
(PID.TID 0000.0001) // SYMBOLS (CMIN->CMAX): -abcdefghijklmnopqrstuvwxyz+
(PID.TID 0000.0001) //                  0.0: .
(PID.TID 0000.0001) // RANGE I (Lo:Hi:Step):(    -2:    45:     1)
(PID.TID 0000.0001) // RANGE J (Lo:Hi:Step):(    23:    -2:    -1)
(PID.TID 0000.0001) // RANGE K (Lo:Hi:Step):(   1:   1:   1)
(PID.TID 0000.0001) // =======================================================
(PID.TID 0000.0001) // =======================================================
(PID.TID 0000.0001) // END OF FIELD                                          =
(PID.TID 0000.0001) // =======================================================
(PID.TID 0000.0001) 
(PID.TID 0000.0001) GAD_INIT_FIXED: GAD_OlMinSize=  1  0  1
(PID.TID 0000.0001) 
(PID.TID 0000.0001) // ===================================
(PID.TID 0000.0001) // GAD parameters :
(PID.TID 0000.0001) // ===================================
(PID.TID 0000.0001) tempAdvScheme =   /* Temp. Horiz.Advection scheme selector */
(PID.TID 0000.0001)                       2
(PID.TID 0000.0001)     ;
(PID.TID 0000.0001) tempVertAdvScheme =   /* Temp. Vert. Advection scheme selector */
(PID.TID 0000.0001)                       2
(PID.TID 0000.0001)     ;
(PID.TID 0000.0001) tempMultiDimAdvec =   /* use Muti-Dim Advec method for Temp */
(PID.TID 0000.0001)                   F
(PID.TID 0000.0001)     ;
(PID.TID 0000.0001) tempSOM_Advection = /* use 2nd Order Moment Advection for Temp */
(PID.TID 0000.0001)                   F
(PID.TID 0000.0001)     ;
(PID.TID 0000.0001) AdamsBashforthGt = /* apply Adams-Bashforth extrapolation on Gt */
(PID.TID 0000.0001)                   T
(PID.TID 0000.0001)     ;
(PID.TID 0000.0001) AdamsBashforth_T = /* apply Adams-Bashforth extrapolation on Temp */
(PID.TID 0000.0001)                   F
(PID.TID 0000.0001)     ;
(PID.TID 0000.0001) saltAdvScheme =   /* Salt. Horiz.advection scheme selector */
(PID.TID 0000.0001)                       2
(PID.TID 0000.0001)     ;
(PID.TID 0000.0001) saltVertAdvScheme =   /* Salt. Vert. Advection scheme selector */
(PID.TID 0000.0001)                       2
(PID.TID 0000.0001)     ;
(PID.TID 0000.0001) saltMultiDimAdvec =   /* use Muti-Dim Advec method for Salt */
(PID.TID 0000.0001)                   F
(PID.TID 0000.0001)     ;
(PID.TID 0000.0001) saltSOM_Advection = /* use 2nd Order Moment Advection for Salt */
(PID.TID 0000.0001)                   F
(PID.TID 0000.0001)     ;
(PID.TID 0000.0001) AdamsBashforthGs = /* apply Adams-Bashforth extrapolation on Gs */
(PID.TID 0000.0001)                   T
(PID.TID 0000.0001)     ;
(PID.TID 0000.0001) AdamsBashforth_S = /* apply Adams-Bashforth extrapolation on Salt */
(PID.TID 0000.0001)                   F
(PID.TID 0000.0001)     ;
(PID.TID 0000.0001) // ===================================
(PID.TID 0000.0001)  MDS_READ_SEC_XZ: opening global file: connect_obN.bin
(PID.TID 0000.0001)  MDS_READ_SEC_YZ: opening global file: connect_obE.bin
(PID.TID 0000.0001)  MDS_READ_SEC_YZ: opening global file: connect_obW.bin
(PID.TID 0000.0001) OBCS_SET_CONNECT: @ k=   1, maxConnect=         1 , numConnect=         1
(PID.TID 0000.0001)  listConnect:       1
(PID.TID 0000.0001) OBCS_SET_CONNECT: @ k=   2, maxConnect=         1 , numConnect=         1
(PID.TID 0000.0001)  listConnect:       1
(PID.TID 0000.0001) OBCS_SET_CONNECT: @ k=   3, maxConnect=         1 , numConnect=         1
(PID.TID 0000.0001)  listConnect:       1
(PID.TID 0000.0001) OBCS_SET_CONNECT: @ k=   4, maxConnect=         1 , numConnect=         1
(PID.TID 0000.0001)  listConnect:       1
(PID.TID 0000.0001) OBCS_SET_CONNECT: @ k=   5, maxConnect=         1 , numConnect=         1
(PID.TID 0000.0001)  listConnect:       1
(PID.TID 0000.0001) OBCS_SET_CONNECT: @ k=   6, maxConnect=         1 , numConnect=         1
(PID.TID 0000.0001)  listConnect:       1
(PID.TID 0000.0001) OBCS_SET_CONNECT: @ k=   7, maxConnect=         1 , numConnect=         1
(PID.TID 0000.0001)  listConnect:       1
(PID.TID 0000.0001) OBCS_SET_CONNECT: @ k=   8, maxConnect=         1 , numConnect=         1
(PID.TID 0000.0001)  listConnect:       1
(PID.TID 0000.0001) OBCS_SET_CONNECT: @ k=   9, maxConnect=         1 , numConnect=         1
(PID.TID 0000.0001)  listConnect:       1
(PID.TID 0000.0001) OBCS_SET_CONNECT: @ k=  10, maxConnect=         1 , numConnect=         1
(PID.TID 0000.0001)  listConnect:       1
(PID.TID 0000.0001) OBCS_SET_CONNECT: @ k=  11, maxConnect=         1 , numConnect=         1
(PID.TID 0000.0001)  listConnect:       1
(PID.TID 0000.0001) OBCS_SET_CONNECT: @ k=  12, maxConnect=         1 , numConnect=         1
(PID.TID 0000.0001)  listConnect:       1
(PID.TID 0000.0001) OBCS_SET_CONNECT: @ k=  13, maxConnect=         5 , numConnect=         5
(PID.TID 0000.0001)  listConnect:       1       2       3       4       5
(PID.TID 0000.0001) OBCS_SET_CONNECT: @ k=  14, maxConnect=         5 , numConnect=         5
(PID.TID 0000.0001)  listConnect:       1       2       3       4       5
(PID.TID 0000.0001) OBCS_SET_CONNECT: @ k=  15, maxConnect=         3 , numConnect=         2
(PID.TID 0000.0001)  listConnect:       1       3
(PID.TID 0000.0001) PTRACERS_INIT_FIXED: updated GAD_OlMinSize=  2  0  1
 QQ load dic parameters, initial fixed
(PID.TID 0000.0001) 
(PID.TID 0000.0001) // ===================================
(PID.TID 0000.0001) //  DIC_INIT_FIXED parameters :
(PID.TID 0000.0001) nlev = /* Number of level over which Bio act is computed */
(PID.TID 0000.0001)                       6
(PID.TID 0000.0001)     ;
(PID.TID 0000.0001) ------------------------------------------------------------
(PID.TID 0000.0001) DIAGNOSTICS_SET_LEVELS: done
(PID.TID 0000.0001)  Total Nb of available Diagnostics: ndiagt=   287
(PID.TID 0000.0001)  write list of available Diagnostics to file: available_diagnostics.log
(PID.TID 0000.0001) SETDIAG: Allocate  1 x  1 Levels for Diagnostic #    23 ETAN
(PID.TID 0000.0001) SETDIAG: Allocate  1 x  1 Levels for Diagnostic #    24 ETANSQ
(PID.TID 0000.0001) SETDIAG: Allocate  1 x  1 Levels for Diagnostic #    25 DETADT2
(PID.TID 0000.0001) SETDIAG: Allocate  1 x  1 Levels for Diagnostic #    73 PHIBOT
(PID.TID 0000.0001) SETDIAG: Allocate  1 x  1 Levels for Diagnostic #    74 PHIBOTSQ
(PID.TID 0000.0001) SETDIAG: Allocate  1 x  1 Levels for Diagnostic #   278 DICTFLX
(PID.TID 0000.0001) SETDIAG: Allocate  1 x  1 Levels for Diagnostic #   279 DICOFLX
(PID.TID 0000.0001) SETDIAG: Allocate  1 x  1 Levels for Diagnostic #   280 DICCFLX
(PID.TID 0000.0001) SETDIAG: Allocate  1 x  1 Levels for Diagnostic #   281 DICPCO2
(PID.TID 0000.0001) SETDIAG: Allocate  1 x  1 Levels for Diagnostic #   282 DICPHAV
(PID.TID 0000.0001) SETDIAG: Allocate 15 x  1 Levels for Diagnostic #    46 VVELMASS
(PID.TID 0000.0001) SETDIAG: Allocate 15 x  1 Levels for Diagnostic #    45 UVELMASS
(PID.TID 0000.0001) SETDIAG: Allocate 15 x  1 Levels for Diagnostic #    26 THETA
(PID.TID 0000.0001) SETDIAG: Allocate 15 x  1 Levels for Diagnostic #    27 SALT
(PID.TID 0000.0001) SETDIAG: Allocate 15 x  1 Levels for Diagnostic #   201 GM_PsiX
(PID.TID 0000.0001) SETDIAG: Allocate 15 x  1 Levels for Diagnostic #   202 GM_PsiY
(PID.TID 0000.0001) SETDIAG: Diag #    48 PhiVEL   processed from Diag #    45 UVELMASS
(PID.TID 0000.0001) - NOTE - SETDIAG:  Diagnostic  #    45 UVELMASS is already set
(PID.TID 0000.0001) - NOTE - SETDIAG:  Vector-mate #    46 VVELMASS is already set
(PID.TID 0000.0001) SETDIAG: Diag #    49 PsiVEL   processed from Diag #    48 PhiVEL
(PID.TID 0000.0001) - NOTE - SETDIAG:  Diagnostic  #    48 PhiVEL   is already set
(PID.TID 0000.0001) SETDIAG: Allocate 15 x  1 Levels for Diagnostic #    78 CONVADJ
(PID.TID 0000.0001) SETDIAG: Allocate  1 x  1 Levels for Diagnostic #    83 oceFWflx
(PID.TID 0000.0001)   space allocated for all diagnostics:     116 levels
(PID.TID 0000.0001)   set mate pointer for diag #    46  VVELMASS , Parms: VVr     MR , mate:    45
(PID.TID 0000.0001)   set mate pointer for diag #    45  UVELMASS , Parms: UUr     MR , mate:    46
(PID.TID 0000.0001)   set mate pointer for diag #   201  GM_PsiX  , Parms: UU      LR , mate:   202
(PID.TID 0000.0001)   set mate pointer for diag #   202  GM_PsiY  , Parms: VV      LR , mate:   201
(PID.TID 0000.0001) DIAGNOSTICS_SET_POINTERS: Set levels for Outp.Stream: dynDiag
(PID.TID 0000.0001)  Levels:       1.   2.   3.   4.   5.   6.   7.   8.   9.  10.  11.  12.  13.  14.  15.
(PID.TID 0000.0001) DIAGNOSTICS_SET_POINTERS: done
(PID.TID 0000.0001) ------------------------------------------------------------
(PID.TID 0000.0001) DIAGNOSTICS_SET_CALC: setting indices iPsi0,jPsi0 where Psi == 0 :
(PID.TID 0000.0001) DIAGNOSTICS_SET_CALC: d2Min=       5.394531E+00, ijMin=         925.000
(PID.TID 0000.0001)  SELECT : bi,bj=    2    2 ; i,j=   10   10 ; ijLoc=         925.000
(PID.TID 0000.0001) ------------------------------------------------------------
(PID.TID 0000.0001) DIAGSTATS_SET_REGIONS: define no region
(PID.TID 0000.0001) ------------------------------------------------------------
(PID.TID 0000.0001) SETDIAG: Allocate  1 Levels for Stats-Diag #    23 ETAN
(PID.TID 0000.0001) SETDIAG: Allocate  1 Levels for Stats-Diag #    25 DETADT2
(PID.TID 0000.0001) SETDIAG: Allocate 15 Levels for Stats-Diag #    26 THETA
(PID.TID 0000.0001) SETDIAG: Allocate 15 Levels for Stats-Diag #    27 SALT
(PID.TID 0000.0001) SETDIAG: Allocate 15 Levels for Stats-Diag #    78 CONVADJ
(PID.TID 0000.0001) SETDIAG: Allocate 15 Levels for Stats-Diag #    30 UVEL
(PID.TID 0000.0001) SETDIAG: Allocate 15 Levels for Stats-Diag #    31 VVEL
(PID.TID 0000.0001) SETDIAG: Allocate 15 Levels for Stats-Diag #    32 WVEL
(PID.TID 0000.0001) SETDIAG: Allocate 15 Levels for Stats-Diag #   201 GM_PsiX
(PID.TID 0000.0001) SETDIAG: Allocate 15 Levels for Stats-Diag #   202 GM_PsiY
(PID.TID 0000.0001) SETDIAG: Allocate 15 Levels for Stats-Diag #   210 TRAC01
(PID.TID 0000.0001) SETDIAG: Allocate 15 Levels for Stats-Diag #   223 TRAC02
(PID.TID 0000.0001) SETDIAG: Allocate 15 Levels for Stats-Diag #   236 TRAC03
(PID.TID 0000.0001) SETDIAG: Allocate 15 Levels for Stats-Diag #   249 TRAC04
(PID.TID 0000.0001) SETDIAG: Allocate 15 Levels for Stats-Diag #   262 TRAC05
(PID.TID 0000.0001)   space allocated for all stats-diags:     197 levels
(PID.TID 0000.0001) DIAGSTATS_SET_POINTERS: done
(PID.TID 0000.0001) ------------------------------------------------------------
(PID.TID 0000.0001) DIAGSTATS_INI_IO: open file: dynStDiag.0000000000.txt , unit=     9
(PID.TID 0000.0001) %MON fCori_max                    =  -6.5572427009593E-05
(PID.TID 0000.0001) %MON fCori_min                    =  -1.4369532533658E-04
(PID.TID 0000.0001) %MON fCori_mean                   =  -1.1250506132776E-04
(PID.TID 0000.0001) %MON fCori_sd                     =   2.4357644817991E-05
(PID.TID 0000.0001) %MON fCoriG_max                   =  -6.8749664608828E-05
(PID.TID 0000.0001) %MON fCoriG_min                   =  -1.4426394581537E-04
(PID.TID 0000.0001) %MON fCoriG_mean                  =  -1.1451888327629E-04
(PID.TID 0000.0001) %MON fCoriG_sd                    =   2.3580812438249E-05
(PID.TID 0000.0001) %MON fCoriCos_max                 =   1.3027003865390E-04
(PID.TID 0000.0001) %MON fCoriCos_min                 =   2.4933504190762E-05
(PID.TID 0000.0001) %MON fCoriCos_mean                =   8.3439440192105E-05
(PID.TID 0000.0001) %MON fCoriCos_sd                  =   3.2514647311668E-05
(PID.TID 0000.0001) INI_CG2D: CG2D normalisation factor =  7.8420435099722891E-05
(PID.TID 0000.0001) 
(PID.TID 0000.0001) // =======================================================
(PID.TID 0000.0001) // Model configuration
(PID.TID 0000.0001) // =======================================================
(PID.TID 0000.0001) //
(PID.TID 0000.0001) // "Physical" paramters ( PARM01 in namelist )
(PID.TID 0000.0001) //
(PID.TID 0000.0001) buoyancyRelation = /* Type of relation to get Buoyancy */
(PID.TID 0000.0001)               'OCEANIC'
(PID.TID 0000.0001)     ;
(PID.TID 0000.0001) fluidIsAir   =  /* fluid major constituent is Air */
(PID.TID 0000.0001)                   F
(PID.TID 0000.0001)     ;
(PID.TID 0000.0001) fluidIsWater =  /* fluid major constituent is Water */
(PID.TID 0000.0001)                   T
(PID.TID 0000.0001)     ;
(PID.TID 0000.0001) usingPCoords =  /* use p (or p*) vertical coordinate */
(PID.TID 0000.0001)                   F
(PID.TID 0000.0001)     ;
(PID.TID 0000.0001) usingZCoords =  /* use z (or z*) vertical coordinate */
(PID.TID 0000.0001)                   T
(PID.TID 0000.0001)     ;
(PID.TID 0000.0001) tRef =   /* Reference temperature profile ( oC or K ) */
(PID.TID 0000.0001)    15 @  2.000000000000000E+01              /* K =  1: 15 */
(PID.TID 0000.0001)     ;
(PID.TID 0000.0001) sRef =   /* Reference salinity profile ( psu ) */
(PID.TID 0000.0001)    15 @  3.500000000000000E+01              /* K =  1: 15 */
(PID.TID 0000.0001)     ;
(PID.TID 0000.0001) useStrainTensionVisc= /* Use StrainTension Form of Viscous Operator */
(PID.TID 0000.0001)                   F
(PID.TID 0000.0001)     ;
(PID.TID 0000.0001) useVariableVisc = /* Use variable horizontal viscosity */
(PID.TID 0000.0001)                   F
(PID.TID 0000.0001)     ;
(PID.TID 0000.0001) useHarmonicVisc = /* Use harmonic horizontal viscosity */
(PID.TID 0000.0001)                   T
(PID.TID 0000.0001)     ;
(PID.TID 0000.0001) useBiharmonicVisc= /* Use biharmonic horiz.  viscosity */
(PID.TID 0000.0001)                   F
(PID.TID 0000.0001)     ;
(PID.TID 0000.0001) useSmag3D = /* Use isotropic 3-D Smagorinsky viscosity */
(PID.TID 0000.0001)                   F
(PID.TID 0000.0001)     ;
(PID.TID 0000.0001) viscAh  =   /* Lateral harmonic viscosity ( m^2/s ) */
(PID.TID 0000.0001)                 3.000000000000000E+05
(PID.TID 0000.0001)     ;
(PID.TID 0000.0001) viscA4  =   /* Lateral biharmonic viscosity ( m^4/s ) */
(PID.TID 0000.0001)                 0.000000000000000E+00
(PID.TID 0000.0001)     ;
(PID.TID 0000.0001) no_slip_sides =  /* Viscous BCs: No-slip sides */
(PID.TID 0000.0001)                   T
(PID.TID 0000.0001)     ;
(PID.TID 0000.0001) sideDragFactor = /* side-drag scaling factor (non-dim) */
(PID.TID 0000.0001)                 2.000000000000000E+00
(PID.TID 0000.0001)     ;
(PID.TID 0000.0001) viscArNr = /* vertical profile of vertical viscosity ( m^2/s )*/
(PID.TID 0000.0001)    15 @  1.000000000000000E-03              /* K =  1: 15 */
(PID.TID 0000.0001)     ;
(PID.TID 0000.0001) no_slip_bottom =  /* Viscous BCs: No-slip bottom */
(PID.TID 0000.0001)                   T
(PID.TID 0000.0001)     ;
(PID.TID 0000.0001) bottomVisc_pCell = /* Partial-cell in bottom Visc. BC */
(PID.TID 0000.0001)                   F
(PID.TID 0000.0001)     ;
(PID.TID 0000.0001) bottomDragLinear = /* linear bottom-drag coefficient ( m/s ) */
(PID.TID 0000.0001)                 0.000000000000000E+00
(PID.TID 0000.0001)     ;
(PID.TID 0000.0001) bottomDragQuadratic = /* quadratic bottom-drag coefficient (-) */
(PID.TID 0000.0001)                 0.000000000000000E+00
(PID.TID 0000.0001)     ;
(PID.TID 0000.0001) selectBotDragQuadr = /* select quadratic bottom drag options */
(PID.TID 0000.0001)                      -1
(PID.TID 0000.0001)     ;
(PID.TID 0000.0001) diffKhT =   /* Laplacian diffusion of heat laterally ( m^2/s ) */
(PID.TID 0000.0001)                 0.000000000000000E+00
(PID.TID 0000.0001)     ;
(PID.TID 0000.0001) diffK4T =   /* Biharmonic diffusion of heat laterally ( m^4/s ) */
(PID.TID 0000.0001)                 0.000000000000000E+00
(PID.TID 0000.0001)     ;
(PID.TID 0000.0001) diffKhS =   /* Laplacian diffusion of salt laterally ( m^2/s ) */
(PID.TID 0000.0001)                 0.000000000000000E+00
(PID.TID 0000.0001)     ;
(PID.TID 0000.0001) diffK4S =   /* Biharmonic diffusion of salt laterally ( m^4/s ) */
(PID.TID 0000.0001)                 0.000000000000000E+00
(PID.TID 0000.0001)     ;
(PID.TID 0000.0001) diffKrNrT = /* vertical profile of vertical diffusion of Temp ( m^2/s )*/
(PID.TID 0000.0001)    15 @  0.000000000000000E+00              /* K =  1: 15 */
(PID.TID 0000.0001)     ;
(PID.TID 0000.0001) diffKrNrS = /* vertical profile of vertical diffusion of Salt ( m^2/s )*/
(PID.TID 0000.0001)    15 @  0.000000000000000E+00              /* K =  1: 15 */
(PID.TID 0000.0001)     ;
(PID.TID 0000.0001) diffKrBL79surf = /* Surface diffusion for Bryan and Lewis 79 ( m^2/s ) */
(PID.TID 0000.0001)                 3.000000000000000E-05
(PID.TID 0000.0001)     ;
(PID.TID 0000.0001) diffKrBL79deep = /* Deep diffusion for Bryan and Lewis 1979 ( m^2/s ) */
(PID.TID 0000.0001)                 1.300000000000000E-04
(PID.TID 0000.0001)     ;
(PID.TID 0000.0001) diffKrBL79scl = /* Depth scale for Bryan and Lewis 1979 ( m ) */
(PID.TID 0000.0001)                 1.500000000000000E+02
(PID.TID 0000.0001)     ;
(PID.TID 0000.0001) diffKrBL79Ho = /* Turning depth for Bryan and Lewis 1979 ( m ) */
(PID.TID 0000.0001)                -2.000000000000000E+03
(PID.TID 0000.0001)     ;
(PID.TID 0000.0001) ivdc_kappa = /* Implicit Vertical Diffusivity for Convection ( m^2/s) */
(PID.TID 0000.0001)                 1.000000000000000E+01
(PID.TID 0000.0001)     ;
(PID.TID 0000.0001) hMixCriteria=  /* Criteria for mixed-layer diagnostic */
(PID.TID 0000.0001)                -8.000000000000000E-01
(PID.TID 0000.0001)     ;
(PID.TID 0000.0001) dRhoSmall =  /* Parameter for mixed-layer diagnostic */
(PID.TID 0000.0001)                 1.000000000000000E-06
(PID.TID 0000.0001)     ;
(PID.TID 0000.0001) hMixSmooth=  /* Smoothing parameter for mixed-layer diagnostic */
(PID.TID 0000.0001)                 0.000000000000000E+00
(PID.TID 0000.0001)     ;
(PID.TID 0000.0001) eosType =  /* Type of Equation of State */
(PID.TID 0000.0001)               'JMD95Z'
(PID.TID 0000.0001)     ;
(PID.TID 0000.0001) selectP_inEOS_Zc = /* select pressure to use in EOS (0,1,2,3) */
(PID.TID 0000.0001)                       0
(PID.TID 0000.0001)     0= -g*rhoConst*z ; 1= pRef (from tRef,sRef); 2= Hyd P ; 3= Hyd+NH P
(PID.TID 0000.0001)     ;
(PID.TID 0000.0001) HeatCapacity_Cp =  /* Specific heat capacity ( J/kg/K ) */
(PID.TID 0000.0001)                 3.994000000000000E+03
(PID.TID 0000.0001)     ;
(PID.TID 0000.0001) celsius2K = /* 0 degree Celsius converted to Kelvin ( K ) */
(PID.TID 0000.0001)                 2.731500000000000E+02
(PID.TID 0000.0001)     ;
(PID.TID 0000.0001) rhoConst  = /* Reference density (Boussinesq)  ( kg/m^3 ) */
(PID.TID 0000.0001)                 1.035000000000000E+03
(PID.TID 0000.0001)     ;
(PID.TID 0000.0001) rhoFacC = /* normalized Reference density @ cell-Center (-) */
(PID.TID 0000.0001)    15 @  1.000000000000000E+00              /* K =  1: 15 */
(PID.TID 0000.0001)     ;
(PID.TID 0000.0001) rhoFacF = /* normalized Reference density @ W-Interface (-) */
(PID.TID 0000.0001)    16 @  1.000000000000000E+00              /* K =  1: 16 */
(PID.TID 0000.0001)     ;
(PID.TID 0000.0001) rhoConstFresh = /* Fresh-water reference density ( kg/m^3 ) */
(PID.TID 0000.0001)                 1.000000000000000E+03
(PID.TID 0000.0001)     ;
(PID.TID 0000.0001) gravity =   /* Gravitational acceleration ( m/s^2 ) */
(PID.TID 0000.0001)                 9.810000000000000E+00
(PID.TID 0000.0001)     ;
(PID.TID 0000.0001) gBaro =   /* Barotropic gravity ( m/s^2 ) */
(PID.TID 0000.0001)                 9.810000000000000E+00
(PID.TID 0000.0001)     ;
(PID.TID 0000.0001) gravFacC = /* gravity factor (vs surf.) @ cell-Center (-) */
(PID.TID 0000.0001)    15 @  1.000000000000000E+00              /* K =  1: 15 */
(PID.TID 0000.0001)     ;
(PID.TID 0000.0001) gravFacF = /* gravity factor (vs surf.) @ W-Interface (-) */
(PID.TID 0000.0001)    16 @  1.000000000000000E+00              /* K =  1: 16 */
(PID.TID 0000.0001)     ;
(PID.TID 0000.0001) rotationPeriod =   /* Rotation Period ( s ) */
(PID.TID 0000.0001)                 8.616400000000000E+04
(PID.TID 0000.0001)     ;
(PID.TID 0000.0001) omega =   /* Angular velocity ( rad/s ) */
(PID.TID 0000.0001)                 7.292123516990375E-05
(PID.TID 0000.0001)     ;
(PID.TID 0000.0001) f0 =   /* Reference coriolis parameter ( 1/s ) */
(PID.TID 0000.0001)                 1.000000000000000E-04
(PID.TID 0000.0001)     ;
(PID.TID 0000.0001) beta =   /* Beta ( 1/(m.s) ) */
(PID.TID 0000.0001)                 9.999999999999999E-12
(PID.TID 0000.0001)     ;
(PID.TID 0000.0001) fPrime =   /* Second coriolis parameter ( 1/s ) */
(PID.TID 0000.0001)                 0.000000000000000E+00
(PID.TID 0000.0001)     ;
(PID.TID 0000.0001) rigidLid =   /* Rigid lid on/off flag */
(PID.TID 0000.0001)                   F
(PID.TID 0000.0001)     ;
(PID.TID 0000.0001) implicitFreeSurface =   /* Implicit free surface on/off flag */
(PID.TID 0000.0001)                   T
(PID.TID 0000.0001)     ;
(PID.TID 0000.0001) freeSurfFac =   /* Implicit free surface factor */
(PID.TID 0000.0001)                 1.000000000000000E+00
(PID.TID 0000.0001)     ;
(PID.TID 0000.0001) implicSurfPress =  /* Surface Pressure implicit factor (0-1)*/
(PID.TID 0000.0001)                 1.000000000000000E+00
(PID.TID 0000.0001)     ;
(PID.TID 0000.0001) implicDiv2Dflow =  /* Barot. Flow Div. implicit factor (0-1)*/
(PID.TID 0000.0001)                 1.000000000000000E+00
(PID.TID 0000.0001)     ;
(PID.TID 0000.0001) uniformLin_PhiSurf = /* use uniform Bo_surf on/off flag*/
(PID.TID 0000.0001)                   T
(PID.TID 0000.0001)     ;
(PID.TID 0000.0001) uniformFreeSurfLev = /* free-surface level-index is uniform */
(PID.TID 0000.0001)                   T
(PID.TID 0000.0001)     ;
(PID.TID 0000.0001) hFacMin =   /* minimum partial cell factor (hFac) */
(PID.TID 0000.0001)                 1.000000000000000E-01
(PID.TID 0000.0001)     ;
(PID.TID 0000.0001) hFacMinDr = /* minimum partial cell thickness ( m) */
(PID.TID 0000.0001)                 5.000000000000000E+01
(PID.TID 0000.0001)     ;
(PID.TID 0000.0001) exactConserv =  /* Exact Volume Conservation on/off flag*/
(PID.TID 0000.0001)                   T
(PID.TID 0000.0001)     ;
(PID.TID 0000.0001) linFSConserveTr = /* Tracer correction for Lin Free Surface on/off flag*/
(PID.TID 0000.0001)                   F
(PID.TID 0000.0001)     ;
(PID.TID 0000.0001) nonlinFreeSurf = /* Non-linear Free Surf. options (-1,0,1,2,3)*/
(PID.TID 0000.0001)                       0
(PID.TID 0000.0001)      -1,0= Off ; 1,2,3= On, 2=+rescale gU,gV, 3=+update cg2d solv.
(PID.TID 0000.0001)     ;
(PID.TID 0000.0001) hFacInf =   /* lower threshold for hFac (nonlinFreeSurf only)*/
(PID.TID 0000.0001)                 2.000000000000000E-01
(PID.TID 0000.0001)     ;
(PID.TID 0000.0001) hFacSup =   /* upper threshold for hFac (nonlinFreeSurf only)*/
(PID.TID 0000.0001)                 2.000000000000000E+00
(PID.TID 0000.0001)     ;
(PID.TID 0000.0001) select_rStar = /* r* Vertical coord. options (=0 r coord.; >0 uses r*)*/
(PID.TID 0000.0001)                       0
(PID.TID 0000.0001)     ;
(PID.TID 0000.0001) useRealFreshWaterFlux = /* Real Fresh Water Flux on/off flag*/
(PID.TID 0000.0001)                   F
(PID.TID 0000.0001)     ;
(PID.TID 0000.0001) temp_EvPrRn = /* Temp. of Evap/Prec/R (UNSET=use local T)(oC)*/
(PID.TID 0000.0001)                 1.234567000000000E+05
(PID.TID 0000.0001)     ;
(PID.TID 0000.0001) salt_EvPrRn = /* Salin. of Evap/Prec/R (UNSET=use local S)(psu)*/
(PID.TID 0000.0001)                 0.000000000000000E+00
(PID.TID 0000.0001)     ;
(PID.TID 0000.0001) selectAddFluid = /* option for mass source/sink of fluid (=0: off) */
(PID.TID 0000.0001)                       0
(PID.TID 0000.0001)     ;
(PID.TID 0000.0001) temp_addMass = /* Temp. of addMass array (UNSET=use local T)(oC)*/
(PID.TID 0000.0001)                 1.234567000000000E+05
(PID.TID 0000.0001)     ;
(PID.TID 0000.0001) salt_addMass = /* Salin. of addMass array (UNSET=use local S)(psu)*/
(PID.TID 0000.0001)                 0.000000000000000E+00
(PID.TID 0000.0001)     ;
(PID.TID 0000.0001) convertFW2Salt = /* convert F.W. Flux to Salt Flux (-1=use local S)(psu)*/
(PID.TID 0000.0001)                 3.500000000000000E+01
(PID.TID 0000.0001)     ;
(PID.TID 0000.0001) use3Dsolver = /* use 3-D pressure solver on/off flag */
(PID.TID 0000.0001)                   F
(PID.TID 0000.0001)     ;
(PID.TID 0000.0001) nonHydrostatic =  /* Non-Hydrostatic on/off flag */
(PID.TID 0000.0001)                   F
(PID.TID 0000.0001)     ;
(PID.TID 0000.0001) nh_Am2 = /* Non-Hydrostatic terms scaling factor */
(PID.TID 0000.0001)                 1.000000000000000E+00
(PID.TID 0000.0001)     ;
(PID.TID 0000.0001) implicitNHPress = /* Non-Hyd Pressure implicit factor (0-1)*/
(PID.TID 0000.0001)                 1.000000000000000E+00
(PID.TID 0000.0001)     ;
(PID.TID 0000.0001) selectNHfreeSurf = /* Non-Hyd (free-)Surface option */
(PID.TID 0000.0001)                       0
(PID.TID 0000.0001)     ;
(PID.TID 0000.0001) quasiHydrostatic = /* Quasi-Hydrostatic on/off flag */
(PID.TID 0000.0001)                   F
(PID.TID 0000.0001)     ;
(PID.TID 0000.0001) calc_wVelocity = /* vertical velocity calculation on/off flag */
(PID.TID 0000.0001)                   T
(PID.TID 0000.0001)     ;
(PID.TID 0000.0001) momStepping =  /* Momentum equation on/off flag */
(PID.TID 0000.0001)                   T
(PID.TID 0000.0001)     ;
(PID.TID 0000.0001) vectorInvariantMomentum= /* Vector-Invariant Momentum on/off */
(PID.TID 0000.0001)                   F
(PID.TID 0000.0001)     ;
(PID.TID 0000.0001) momAdvection =  /* Momentum advection on/off flag */
(PID.TID 0000.0001)                   T
(PID.TID 0000.0001)     ;
(PID.TID 0000.0001) momViscosity =  /* Momentum viscosity on/off flag */
(PID.TID 0000.0001)                   T
(PID.TID 0000.0001)     ;
(PID.TID 0000.0001) momImplVertAdv= /* Momentum implicit vert. advection on/off*/
(PID.TID 0000.0001)                   F
(PID.TID 0000.0001)     ;
(PID.TID 0000.0001) implicitViscosity = /* Implicit viscosity on/off flag */
(PID.TID 0000.0001)                   F
(PID.TID 0000.0001)     ;
(PID.TID 0000.0001) implBottomFriction= /* Implicit bottom friction on/off flag */
(PID.TID 0000.0001)                   F
(PID.TID 0000.0001)     ;
(PID.TID 0000.0001) metricTerms =  /* metric-Terms on/off flag */
(PID.TID 0000.0001)                   T
(PID.TID 0000.0001)     ;
(PID.TID 0000.0001) useNHMTerms = /* Non-Hydrostatic Metric-Terms on/off */
(PID.TID 0000.0001)                   F
(PID.TID 0000.0001)     ;
(PID.TID 0000.0001) selectCoriMap = /* Coriolis Map options (0,1,2,3)*/
(PID.TID 0000.0001)                       2
(PID.TID 0000.0001)     0= f-Plane ; 1= Beta-Plane ; 2= Spherical ; 3= read from file
(PID.TID 0000.0001)     ;
(PID.TID 0000.0001) use3dCoriolis = /* 3-D Coriolis on/off flag */
(PID.TID 0000.0001)                   F
(PID.TID 0000.0001)     ;
(PID.TID 0000.0001) useCoriolis =  /* Coriolis on/off flag */
(PID.TID 0000.0001)                   T
(PID.TID 0000.0001)     ;
(PID.TID 0000.0001) useCDscheme =  /* CD scheme on/off flag */
(PID.TID 0000.0001)                   F
(PID.TID 0000.0001)     ;
(PID.TID 0000.0001) useEnergyConservingCoriolis= /* Flx-Form Coriolis scheme flag */
(PID.TID 0000.0001)                   F
(PID.TID 0000.0001)     ;
(PID.TID 0000.0001) useJamartWetPoints= /* Coriolis WetPoints method flag */
(PID.TID 0000.0001)                   F
(PID.TID 0000.0001)     ;
(PID.TID 0000.0001) useJamartMomAdv= /* V.I Non-linear terms Jamart flag */
(PID.TID 0000.0001)                   F
(PID.TID 0000.0001)     ;
(PID.TID 0000.0001) useAbsVorticity= /* V.I Works with f+zeta in Coriolis */
(PID.TID 0000.0001)                   F
(PID.TID 0000.0001)     ;
(PID.TID 0000.0001) selectVortScheme= /* V.I Scheme selector for Vorticity-Term */
(PID.TID 0000.0001)               123456789
(PID.TID 0000.0001)    = 0 : enstrophy (Shallow-Water Eq.) conserving scheme by Sadourny, JAS 75
(PID.TID 0000.0001)    = 1 : same as 0 with modified hFac
(PID.TID 0000.0001)    = 2 : energy conserving scheme (used by Sadourny in JAS 75 paper)
(PID.TID 0000.0001)    = 3 : energy (general) and enstrophy (2D, nonDiv.) conserving scheme
(PID.TID 0000.0001)          from Sadourny (Burridge & Haseler, ECMWF Rep.4, 1977)
(PID.TID 0000.0001)     ;
(PID.TID 0000.0001) upwindVorticity= /* V.I Upwind bias vorticity flag */
(PID.TID 0000.0001)                   F
(PID.TID 0000.0001)     ;
(PID.TID 0000.0001) highOrderVorticity= /* V.I High order vort. advect. flag */
(PID.TID 0000.0001)                   F
(PID.TID 0000.0001)     ;
(PID.TID 0000.0001) upwindShear= /* V.I Upwind vertical Shear advection flag */
(PID.TID 0000.0001)                   F
(PID.TID 0000.0001)     ;
(PID.TID 0000.0001) selectKEscheme= /* V.I Kinetic Energy scheme selector */
(PID.TID 0000.0001)                       0
(PID.TID 0000.0001)     ;
(PID.TID 0000.0001) momForcing =  /* Momentum forcing on/off flag */
(PID.TID 0000.0001)                   T
(PID.TID 0000.0001)     ;
(PID.TID 0000.0001) momPressureForcing =  /* Momentum pressure term on/off flag */
(PID.TID 0000.0001)                   T
(PID.TID 0000.0001)     ;
(PID.TID 0000.0001) implicitIntGravWave= /* Implicit Internal Gravity Wave flag */
(PID.TID 0000.0001)                   F
(PID.TID 0000.0001)     ;
(PID.TID 0000.0001) staggerTimeStep =    /* Stagger time stepping on/off flag */
(PID.TID 0000.0001)                   F
(PID.TID 0000.0001)     ;
(PID.TID 0000.0001) doResetHFactors = /* reset thickness factors @ each time-step */
(PID.TID 0000.0001)                   F
(PID.TID 0000.0001)     ;
(PID.TID 0000.0001) multiDimAdvection =  /* enable/disable Multi-Dim Advection */
(PID.TID 0000.0001)                   T
(PID.TID 0000.0001)     ;
(PID.TID 0000.0001) useMultiDimAdvec =   /* Multi-Dim Advection is/is-not used */
(PID.TID 0000.0001)                   T
(PID.TID 0000.0001)     ;
(PID.TID 0000.0001) implicitDiffusion = /* Implicit Diffusion on/off flag */
(PID.TID 0000.0001)                   T
(PID.TID 0000.0001)     ;
(PID.TID 0000.0001) tempStepping =  /* Temperature equation on/off flag */
(PID.TID 0000.0001)                   T
(PID.TID 0000.0001)     ;
(PID.TID 0000.0001) tempAdvection = /* Temperature advection on/off flag */
(PID.TID 0000.0001)                   T
(PID.TID 0000.0001)     ;
(PID.TID 0000.0001) tempImplVertAdv = /* Temp. implicit vert. advection on/off */
(PID.TID 0000.0001)                   F
(PID.TID 0000.0001)     ;
(PID.TID 0000.0001) tempForcing  =  /* Temperature forcing on/off flag */
(PID.TID 0000.0001)                   T
(PID.TID 0000.0001)     ;
(PID.TID 0000.0001) doThetaClimRelax = /* apply SST relaxation on/off flag */
(PID.TID 0000.0001)                   T
(PID.TID 0000.0001)     ;
(PID.TID 0000.0001) tempIsActiveTr = /* Temp. is a dynamically Active Tracer */
(PID.TID 0000.0001)                   T
(PID.TID 0000.0001)     ;
(PID.TID 0000.0001) saltStepping =  /* Salinity equation on/off flag */
(PID.TID 0000.0001)                   T
(PID.TID 0000.0001)     ;
(PID.TID 0000.0001) saltAdvection = /* Salinity advection on/off flag */
(PID.TID 0000.0001)                   T
(PID.TID 0000.0001)     ;
(PID.TID 0000.0001) saltImplVertAdv = /* Sali. implicit vert. advection on/off */
(PID.TID 0000.0001)                   F
(PID.TID 0000.0001)     ;
(PID.TID 0000.0001) saltForcing  =  /* Salinity forcing on/off flag */
(PID.TID 0000.0001)                   T
(PID.TID 0000.0001)     ;
(PID.TID 0000.0001) doSaltClimRelax = /* apply SSS relaxation on/off flag */
(PID.TID 0000.0001)                   T
(PID.TID 0000.0001)     ;
(PID.TID 0000.0001) saltIsActiveTr = /* Salt  is a dynamically Active Tracer */
(PID.TID 0000.0001)                   T
(PID.TID 0000.0001)     ;
(PID.TID 0000.0001)  readBinaryPrec = /* Precision used for reading binary files */
(PID.TID 0000.0001)                      32
(PID.TID 0000.0001)     ;
(PID.TID 0000.0001) writeBinaryPrec = /* Precision used for writing binary files */
(PID.TID 0000.0001)                      64
(PID.TID 0000.0001)     ;
(PID.TID 0000.0001)  globalFiles = /* write "global" (=not per tile) files */
(PID.TID 0000.0001)                   T
(PID.TID 0000.0001)     ;
(PID.TID 0000.0001)  useSingleCpuIO = /* only master MPI process does I/O */
(PID.TID 0000.0001)                   F
(PID.TID 0000.0001)     ;
(PID.TID 0000.0001)  useSingleCpuInput = /* only master process reads input */
(PID.TID 0000.0001)                   F
(PID.TID 0000.0001)     ;
(PID.TID 0000.0001) /* debLev[*]  : level of debug & auxiliary message printing */
(PID.TID 0000.0001) debLevZero =  0 ; /* level of disabled aux. msg printing */
(PID.TID 0000.0001)    debLevA =  1 ; /* level of minimum  aux. msg printing */
(PID.TID 0000.0001)    debLevB =  2 ; /* level of low aux. print (report read-file opening)*/
(PID.TID 0000.0001)    debLevC =  3 ; /* level of moderate debug prt (most pkgs debug msg) */
(PID.TID 0000.0001)    debLevD =  4 ; /* level of enhanced debug prt (add DEBUG_STATS prt) */
(PID.TID 0000.0001)    debLevE =  5 ; /* level of extensive debug printing */
(PID.TID 0000.0001) debugLevel =  /* select debug printing level */
(PID.TID 0000.0001)                       2
(PID.TID 0000.0001)     ;
(PID.TID 0000.0001) //
(PID.TID 0000.0001) // Elliptic solver(s) paramters ( PARM02 in namelist )
(PID.TID 0000.0001) //
(PID.TID 0000.0001) cg2dMaxIters =   /* Upper limit on 2d con. grad iterations  */
(PID.TID 0000.0001)                    1000
(PID.TID 0000.0001)     ;
(PID.TID 0000.0001) cg2dChkResFreq =   /* 2d con. grad convergence test frequency */
(PID.TID 0000.0001)                       1
(PID.TID 0000.0001)     ;
(PID.TID 0000.0001) cg2dUseMinResSol= /* use cg2d last-iter(=0) / min-resid.(=1) solution */
(PID.TID 0000.0001)                       0
(PID.TID 0000.0001)     ;
(PID.TID 0000.0001) cg2dTargetResidual =   /* 2d con. grad target residual  */
(PID.TID 0000.0001)                 1.000000000000000E-13
(PID.TID 0000.0001)     ;
(PID.TID 0000.0001) cg2dTargetResWunit =   /* CG2d target residual [W units] */
(PID.TID 0000.0001)                -1.000000000000000E+00
(PID.TID 0000.0001)     ;
(PID.TID 0000.0001) cg2dPreCondFreq =   /* Freq. for updating cg2d preconditioner */
(PID.TID 0000.0001)                       1
(PID.TID 0000.0001)     ;
(PID.TID 0000.0001) useSRCGSolver =  /* use single reduction CG solver(s) */
(PID.TID 0000.0001)                   F
(PID.TID 0000.0001)     ;
(PID.TID 0000.0001) printResidualFreq = /* Freq. for printing CG residual */
(PID.TID 0000.0001)                       0
(PID.TID 0000.0001)     ;
(PID.TID 0000.0001) //
(PID.TID 0000.0001) // Time stepping paramters ( PARM03 in namelist )
(PID.TID 0000.0001) //
(PID.TID 0000.0001) deltaTMom =   /* Momentum equation timestep ( s ) */
(PID.TID 0000.0001)                 9.000000000000000E+02
(PID.TID 0000.0001)     ;
(PID.TID 0000.0001) deltaTFreeSurf = /* FreeSurface equation timestep ( s ) */
(PID.TID 0000.0001)                 9.000000000000000E+02
(PID.TID 0000.0001)     ;
(PID.TID 0000.0001) dTtracerLev =  /* Tracer equation timestep ( s ) */
(PID.TID 0000.0001)    15 @  9.000000000000000E+02              /* K =  1: 15 */
(PID.TID 0000.0001)     ;
(PID.TID 0000.0001) deltaTClock  =   /* Model clock timestep ( s ) */
(PID.TID 0000.0001)                 9.000000000000000E+02
(PID.TID 0000.0001)     ;
(PID.TID 0000.0001) cAdjFreq =   /* Convective adjustment interval ( s ) */
(PID.TID 0000.0001)                 0.000000000000000E+00
(PID.TID 0000.0001)     ;
(PID.TID 0000.0001) momForcingOutAB = /* =1: take Momentum Forcing out of Adams-Bash. stepping */
(PID.TID 0000.0001)                       0
(PID.TID 0000.0001)     ;
(PID.TID 0000.0001) tracForcingOutAB = /* =1: take T,S,pTr Forcing out of Adams-Bash. stepping */
(PID.TID 0000.0001)                       0
(PID.TID 0000.0001)     ;
(PID.TID 0000.0001) momDissip_In_AB = /* put Dissipation Tendency in Adams-Bash. stepping */
(PID.TID 0000.0001)                   T
(PID.TID 0000.0001)     ;
(PID.TID 0000.0001) doAB_onGtGs = /* apply AB on Tendencies (rather than on T,S)*/
(PID.TID 0000.0001)                   T
(PID.TID 0000.0001)     ;
(PID.TID 0000.0001) abEps =   /* Adams-Bashforth-2 stabilizing weight */
(PID.TID 0000.0001)                 1.000000000000000E-01
(PID.TID 0000.0001)     ;
(PID.TID 0000.0001) applyExchUV_early = /* Apply EXCH to U,V earlier in time-step */
(PID.TID 0000.0001)                   F
(PID.TID 0000.0001)     ;
(PID.TID 0000.0001) pickupStrictlyMatch= /* stop if pickup do not strictly match */
(PID.TID 0000.0001)                   T
(PID.TID 0000.0001)     ;
(PID.TID 0000.0001) nIter0   =   /* Run starting timestep number */
(PID.TID 0000.0001)                       0
(PID.TID 0000.0001)     ;
(PID.TID 0000.0001) nTimeSteps = /* Number of timesteps */
(PID.TID 0000.0001)                      10
(PID.TID 0000.0001)     ;
(PID.TID 0000.0001) nEndIter =   /* Run ending timestep number */
(PID.TID 0000.0001)                      10
(PID.TID 0000.0001)     ;
(PID.TID 0000.0001) baseTime =   /* Model base time ( s ) */
(PID.TID 0000.0001)                 0.000000000000000E+00
(PID.TID 0000.0001)     ;
(PID.TID 0000.0001) startTime =  /* Run start time ( s ) */
(PID.TID 0000.0001)                 0.000000000000000E+00
(PID.TID 0000.0001)     ;
(PID.TID 0000.0001) endTime  =   /* Integration ending time ( s ) */
(PID.TID 0000.0001)                 9.000000000000000E+03
(PID.TID 0000.0001)     ;
(PID.TID 0000.0001) pChkPtFreq = /* Permanent restart/pickup file interval ( s ) */
(PID.TID 0000.0001)                 3.110400000000000E+08
(PID.TID 0000.0001)     ;
(PID.TID 0000.0001) chkPtFreq  = /* Rolling restart/pickup file interval ( s ) */
(PID.TID 0000.0001)                 3.110400000000000E+07
(PID.TID 0000.0001)     ;
(PID.TID 0000.0001) pickup_write_mdsio =   /* Model IO flag. */
(PID.TID 0000.0001)                   T
(PID.TID 0000.0001)     ;
(PID.TID 0000.0001) pickup_read_mdsio =   /* Model IO flag. */
(PID.TID 0000.0001)                   T
(PID.TID 0000.0001)     ;
(PID.TID 0000.0001) pickup_write_immed =   /* Model IO flag. */
(PID.TID 0000.0001)                   F
(PID.TID 0000.0001)     ;
(PID.TID 0000.0001) writePickupAtEnd =   /* Model IO flag. */
(PID.TID 0000.0001)                   T
(PID.TID 0000.0001)     ;
(PID.TID 0000.0001) dumpFreq =   /* Model state write out interval ( s ). */
(PID.TID 0000.0001)                 2.592000000000000E+06
(PID.TID 0000.0001)     ;
(PID.TID 0000.0001) dumpInitAndLast= /* write out Initial & Last iter. model state */
(PID.TID 0000.0001)                   T
(PID.TID 0000.0001)     ;
(PID.TID 0000.0001) snapshot_mdsio =   /* Model IO flag. */
(PID.TID 0000.0001)                   T
(PID.TID 0000.0001)     ;
(PID.TID 0000.0001) monitorFreq =   /* Monitor output interval ( s ). */
(PID.TID 0000.0001)                 1.000000000000000E+00
(PID.TID 0000.0001)     ;
(PID.TID 0000.0001) monitorSelect = /* select group of variables to monitor */
(PID.TID 0000.0001)                       3
(PID.TID 0000.0001)     ;
(PID.TID 0000.0001) monitor_stdio =   /* Model IO flag. */
(PID.TID 0000.0001)                   T
(PID.TID 0000.0001)     ;
(PID.TID 0000.0001) externForcingPeriod =   /* forcing period (s) */
(PID.TID 0000.0001)                 2.592000000000000E+06
(PID.TID 0000.0001)     ;
(PID.TID 0000.0001) externForcingCycle =   /* period of the cyle (s). */
(PID.TID 0000.0001)                 3.110400000000000E+07
(PID.TID 0000.0001)     ;
(PID.TID 0000.0001) tauThetaClimRelax =   /* relaxation time scale (s) */
(PID.TID 0000.0001)                 5.184000000000000E+06
(PID.TID 0000.0001)     ;
(PID.TID 0000.0001) tauSaltClimRelax =   /* relaxation time scale (s) */
(PID.TID 0000.0001)                 7.776000000000000E+06
(PID.TID 0000.0001)     ;
(PID.TID 0000.0001) latBandClimRelax =   /* max. Lat. where relaxation */
(PID.TID 0000.0001)                 1.800000000000000E+02
(PID.TID 0000.0001)     ;
(PID.TID 0000.0001) //
(PID.TID 0000.0001) // Gridding paramters ( PARM04 in namelist )
(PID.TID 0000.0001) //
(PID.TID 0000.0001) usingCartesianGrid = /* Cartesian coordinates flag ( True/False ) */
(PID.TID 0000.0001)                   F
(PID.TID 0000.0001)     ;
(PID.TID 0000.0001) usingCylindricalGrid = /* Cylindrical coordinates flag ( True/False ) */
(PID.TID 0000.0001)                   F
(PID.TID 0000.0001)     ;
(PID.TID 0000.0001) usingSphericalPolarGrid = /* Spherical coordinates flag ( True/False ) */
(PID.TID 0000.0001)                   T
(PID.TID 0000.0001)     ;
(PID.TID 0000.0001) usingCurvilinearGrid = /* Curvilinear coordinates flag ( True/False ) */
(PID.TID 0000.0001)                   F
(PID.TID 0000.0001)     ;
(PID.TID 0000.0001) selectSigmaCoord = /* Hybrid-Sigma Vert. Coordinate option */
(PID.TID 0000.0001)                       0
(PID.TID 0000.0001)     ;
(PID.TID 0000.0001) rSigmaBnd = /* r/sigma transition ( units of r ==  m ) */
(PID.TID 0000.0001)                 1.234567000000000E+05
(PID.TID 0000.0001)     ;
(PID.TID 0000.0001) rkSign =   /* index orientation relative to vertical coordinate */
(PID.TID 0000.0001)                -1.000000000000000E+00
(PID.TID 0000.0001)     ;
(PID.TID 0000.0001) gravitySign = /* gravity orientation relative to vertical coordinate */
(PID.TID 0000.0001)                -1.000000000000000E+00
(PID.TID 0000.0001)     ;
(PID.TID 0000.0001) seaLev_Z =  /* reference height of sea-level [m] */
(PID.TID 0000.0001)                 0.000000000000000E+00
(PID.TID 0000.0001)     ;
(PID.TID 0000.0001) top_Pres =  /* reference pressure at the top [Pa] */
(PID.TID 0000.0001)                 0.000000000000000E+00
(PID.TID 0000.0001)     ;
(PID.TID 0000.0001) mass2rUnit = /* convert mass per unit area [kg/m2] to r-units [m] */
(PID.TID 0000.0001)                 9.661835748792270E-04
(PID.TID 0000.0001)     ;
(PID.TID 0000.0001) rUnit2mass = /* convert r-units [m] to mass per unit area [kg/m2] */
(PID.TID 0000.0001)                 1.035000000000000E+03
(PID.TID 0000.0001)     ;
(PID.TID 0000.0001) drC =   /* C spacing ( units of r ) */
(PID.TID 0000.0001)                 2.500000000000000E+01,      /* K =  1 */
(PID.TID 0000.0001)                 6.000000000000000E+01,      /* K =  2 */
(PID.TID 0000.0001)                 8.500000000000000E+01,      /* K =  3 */
(PID.TID 0000.0001)                 1.200000000000000E+02,      /* K =  4 */
(PID.TID 0000.0001)                 1.650000000000000E+02,      /* K =  5 */
(PID.TID 0000.0001)                 2.150000000000000E+02,      /* K =  6 */
(PID.TID 0000.0001)                 2.650000000000000E+02,      /* K =  7 */
(PID.TID 0000.0001)                 3.150000000000000E+02,      /* K =  8 */
(PID.TID 0000.0001)                 3.650000000000000E+02,      /* K =  9 */
(PID.TID 0000.0001)                 4.150000000000000E+02,      /* K = 10 */
(PID.TID 0000.0001)                 4.650000000000000E+02,      /* K = 11 */
(PID.TID 0000.0001)                 5.150000000000000E+02,      /* K = 12 */
(PID.TID 0000.0001)                 5.650000000000000E+02,      /* K = 13 */
(PID.TID 0000.0001)                 6.150000000000000E+02,      /* K = 14 */
(PID.TID 0000.0001)                 6.650000000000000E+02,      /* K = 15 */
(PID.TID 0000.0001)                 3.450000000000000E+02       /* K = 16 */
(PID.TID 0000.0001)     ;
(PID.TID 0000.0001) drF =   /* W spacing ( units of r ) */
(PID.TID 0000.0001)                 5.000000000000000E+01,      /* K =  1 */
(PID.TID 0000.0001)                 7.000000000000000E+01,      /* K =  2 */
(PID.TID 0000.0001)                 1.000000000000000E+02,      /* K =  3 */
(PID.TID 0000.0001)                 1.400000000000000E+02,      /* K =  4 */
(PID.TID 0000.0001)                 1.900000000000000E+02,      /* K =  5 */
(PID.TID 0000.0001)                 2.400000000000000E+02,      /* K =  6 */
(PID.TID 0000.0001)                 2.900000000000000E+02,      /* K =  7 */
(PID.TID 0000.0001)                 3.400000000000000E+02,      /* K =  8 */
(PID.TID 0000.0001)                 3.900000000000000E+02,      /* K =  9 */
(PID.TID 0000.0001)                 4.400000000000000E+02,      /* K = 10 */
(PID.TID 0000.0001)                 4.900000000000000E+02,      /* K = 11 */
(PID.TID 0000.0001)                 5.400000000000000E+02,      /* K = 12 */
(PID.TID 0000.0001)                 5.900000000000000E+02,      /* K = 13 */
(PID.TID 0000.0001)                 6.400000000000000E+02,      /* K = 14 */
(PID.TID 0000.0001)                 6.900000000000000E+02       /* K = 15 */
(PID.TID 0000.0001)     ;
(PID.TID 0000.0001) delX = /* U spacing ( m - cartesian, degrees - spherical ) */
(PID.TID 0000.0001)    42 @  2.812500000000000E+00              /* I =  1: 42 */
(PID.TID 0000.0001)     ;
(PID.TID 0000.0001) delY = /* V spacing ( m - cartesian, degrees - spherical ) */
(PID.TID 0000.0001)    20 @  2.812500000000000E+00              /* J =  1: 20 */
(PID.TID 0000.0001)     ;
(PID.TID 0000.0001) xgOrigin = /* X-axis origin of West  edge (cartesian: m, lat-lon: deg) */
(PID.TID 0000.0001)                 2.362500000000000E+02
(PID.TID 0000.0001)     ;
(PID.TID 0000.0001) ygOrigin = /* Y-axis origin of South edge (cartesian: m, lat-lon: deg) */
(PID.TID 0000.0001)                -8.156250000000000E+01
(PID.TID 0000.0001)     ;
(PID.TID 0000.0001) rSphere =  /* Radius ( ignored - cartesian, m - spherical ) */
(PID.TID 0000.0001)                 6.370000000000000E+06
(PID.TID 0000.0001)     ;
(PID.TID 0000.0001) deepAtmosphere = /* Deep/Shallow Atmosphere flag (True/False) */
(PID.TID 0000.0001)                   F
(PID.TID 0000.0001)     ;
(PID.TID 0000.0001) xC =  /* xC(:,1,:,1) : P-point X coord ( deg. or m if cartesian) */
(PID.TID 0000.0001)                 2.376562500000000E+02,      /* I =  1 */
(PID.TID 0000.0001)                 2.404687500000000E+02,      /* I =  2 */
(PID.TID 0000.0001)                 2.432812500000000E+02,      /* I =  3 */
(PID.TID 0000.0001)                 2.460937500000000E+02,      /* I =  4 */
(PID.TID 0000.0001)                 2.489062500000000E+02,      /* I =  5 */
(PID.TID 0000.0001)                 2.517187500000000E+02,      /* I =  6 */
(PID.TID 0000.0001)                 2.545312500000000E+02,      /* I =  7 */
(PID.TID 0000.0001)                 2.573437500000000E+02,      /* I =  8 */
(PID.TID 0000.0001)                 2.601562500000000E+02,      /* I =  9 */
(PID.TID 0000.0001)                 2.629687500000000E+02,      /* I = 10 */
(PID.TID 0000.0001)                 2.657812500000000E+02,      /* I = 11 */
(PID.TID 0000.0001)                 2.685937500000000E+02,      /* I = 12 */
(PID.TID 0000.0001)                 2.714062500000000E+02,      /* I = 13 */
(PID.TID 0000.0001)                 2.742187500000000E+02,      /* I = 14 */
(PID.TID 0000.0001)                 2.770312500000000E+02,      /* I = 15 */
(PID.TID 0000.0001)                 2.798437500000000E+02,      /* I = 16 */
(PID.TID 0000.0001)                 2.826562500000000E+02,      /* I = 17 */
(PID.TID 0000.0001)                 2.854687500000000E+02,      /* I = 18 */
(PID.TID 0000.0001)                 2.882812500000000E+02,      /* I = 19 */
(PID.TID 0000.0001)                 2.910937500000000E+02,      /* I = 20 */
(PID.TID 0000.0001)                 2.939062500000000E+02,      /* I = 21 */
(PID.TID 0000.0001)                 2.967187500000000E+02,      /* I = 22 */
(PID.TID 0000.0001)                 2.995312500000000E+02,      /* I = 23 */
(PID.TID 0000.0001)                 3.023437500000000E+02,      /* I = 24 */
(PID.TID 0000.0001)                 3.051562500000000E+02,      /* I = 25 */
(PID.TID 0000.0001)                 3.079687500000000E+02,      /* I = 26 */
(PID.TID 0000.0001)                 3.107812500000000E+02,      /* I = 27 */
(PID.TID 0000.0001)                 3.135937500000000E+02,      /* I = 28 */
(PID.TID 0000.0001)                 3.164062500000000E+02,      /* I = 29 */
(PID.TID 0000.0001)                 3.192187500000000E+02,      /* I = 30 */
(PID.TID 0000.0001)                 3.220312500000000E+02,      /* I = 31 */
(PID.TID 0000.0001)                 3.248437500000000E+02,      /* I = 32 */
(PID.TID 0000.0001)                 3.276562500000000E+02,      /* I = 33 */
(PID.TID 0000.0001)                 3.304687500000000E+02,      /* I = 34 */
(PID.TID 0000.0001)                 3.332812500000000E+02,      /* I = 35 */
(PID.TID 0000.0001)                 3.360937500000000E+02,      /* I = 36 */
(PID.TID 0000.0001)                 3.389062500000000E+02,      /* I = 37 */
(PID.TID 0000.0001)                 3.417187500000000E+02,      /* I = 38 */
(PID.TID 0000.0001)                 3.445312500000000E+02,      /* I = 39 */
(PID.TID 0000.0001)                 3.473437500000000E+02,      /* I = 40 */
(PID.TID 0000.0001)                 3.501562500000000E+02,      /* I = 41 */
(PID.TID 0000.0001)                 3.529687500000000E+02       /* I = 42 */
(PID.TID 0000.0001)     ;
(PID.TID 0000.0001) yC =  /* yC(1,:,1,:) : P-point Y coord ( deg. or m if cartesian) */
(PID.TID 0000.0001)                -8.015625000000000E+01,      /* J =  1 */
(PID.TID 0000.0001)                -7.734375000000000E+01,      /* J =  2 */
(PID.TID 0000.0001)                -7.453125000000000E+01,      /* J =  3 */
(PID.TID 0000.0001)                -7.171875000000000E+01,      /* J =  4 */
(PID.TID 0000.0001)                -6.890625000000000E+01,      /* J =  5 */
(PID.TID 0000.0001)                -6.609375000000000E+01,      /* J =  6 */
(PID.TID 0000.0001)                -6.328125000000000E+01,      /* J =  7 */
(PID.TID 0000.0001)                -6.046875000000000E+01,      /* J =  8 */
(PID.TID 0000.0001)                -5.765625000000000E+01,      /* J =  9 */
(PID.TID 0000.0001)                -5.484375000000000E+01,      /* J = 10 */
(PID.TID 0000.0001)                -5.203125000000000E+01,      /* J = 11 */
(PID.TID 0000.0001)                -4.921875000000000E+01,      /* J = 12 */
(PID.TID 0000.0001)                -4.640625000000000E+01,      /* J = 13 */
(PID.TID 0000.0001)                -4.359375000000000E+01,      /* J = 14 */
(PID.TID 0000.0001)                -4.078125000000000E+01,      /* J = 15 */
(PID.TID 0000.0001)                -3.796875000000000E+01,      /* J = 16 */
(PID.TID 0000.0001)                -3.515625000000000E+01,      /* J = 17 */
(PID.TID 0000.0001)                -3.234375000000000E+01,      /* J = 18 */
(PID.TID 0000.0001)                -2.953125000000000E+01,      /* J = 19 */
(PID.TID 0000.0001)                -2.671875000000000E+01       /* J = 20 */
(PID.TID 0000.0001)     ;
(PID.TID 0000.0001) rcoord = /* P-point R coordinate (  units of r ) */
(PID.TID 0000.0001)                -2.500000000000000E+01,      /* K =  1 */
(PID.TID 0000.0001)                -8.500000000000000E+01,      /* K =  2 */
(PID.TID 0000.0001)                -1.700000000000000E+02,      /* K =  3 */
(PID.TID 0000.0001)                -2.900000000000000E+02,      /* K =  4 */
(PID.TID 0000.0001)                -4.550000000000000E+02,      /* K =  5 */
(PID.TID 0000.0001)                -6.700000000000000E+02,      /* K =  6 */
(PID.TID 0000.0001)                -9.350000000000000E+02,      /* K =  7 */
(PID.TID 0000.0001)                -1.250000000000000E+03,      /* K =  8 */
(PID.TID 0000.0001)                -1.615000000000000E+03,      /* K =  9 */
(PID.TID 0000.0001)                -2.030000000000000E+03,      /* K = 10 */
(PID.TID 0000.0001)                -2.495000000000000E+03,      /* K = 11 */
(PID.TID 0000.0001)                -3.010000000000000E+03,      /* K = 12 */
(PID.TID 0000.0001)                -3.575000000000000E+03,      /* K = 13 */
(PID.TID 0000.0001)                -4.190000000000000E+03,      /* K = 14 */
(PID.TID 0000.0001)                -4.855000000000000E+03       /* K = 15 */
(PID.TID 0000.0001)     ;
(PID.TID 0000.0001) rF =   /* W-Interf. R coordinate (  units of r ) */
(PID.TID 0000.0001)                 0.000000000000000E+00,      /* K =  1 */
(PID.TID 0000.0001)                -5.000000000000000E+01,      /* K =  2 */
(PID.TID 0000.0001)                -1.200000000000000E+02,      /* K =  3 */
(PID.TID 0000.0001)                -2.200000000000000E+02,      /* K =  4 */
(PID.TID 0000.0001)                -3.600000000000000E+02,      /* K =  5 */
(PID.TID 0000.0001)                -5.500000000000000E+02,      /* K =  6 */
(PID.TID 0000.0001)                -7.900000000000000E+02,      /* K =  7 */
(PID.TID 0000.0001)                -1.080000000000000E+03,      /* K =  8 */
(PID.TID 0000.0001)                -1.420000000000000E+03,      /* K =  9 */
(PID.TID 0000.0001)                -1.810000000000000E+03,      /* K = 10 */
(PID.TID 0000.0001)                -2.250000000000000E+03,      /* K = 11 */
(PID.TID 0000.0001)                -2.740000000000000E+03,      /* K = 12 */
(PID.TID 0000.0001)                -3.280000000000000E+03,      /* K = 13 */
(PID.TID 0000.0001)                -3.870000000000000E+03,      /* K = 14 */
(PID.TID 0000.0001)                -4.510000000000000E+03,      /* K = 15 */
(PID.TID 0000.0001)                -5.200000000000000E+03       /* K = 16 */
(PID.TID 0000.0001)     ;
(PID.TID 0000.0001) deepFacC = /* deep-model grid factor @ cell-Center (-) */
(PID.TID 0000.0001)    15 @  1.000000000000000E+00              /* K =  1: 15 */
(PID.TID 0000.0001)     ;
(PID.TID 0000.0001) deepFacF = /* deep-model grid factor @ W-Interface (-) */
(PID.TID 0000.0001)    16 @  1.000000000000000E+00              /* K =  1: 16 */
(PID.TID 0000.0001)     ;
(PID.TID 0000.0001) rVel2wUnit = /* convert units: rVel -> wSpeed (=1 if z-coord)*/
(PID.TID 0000.0001)    16 @  1.000000000000000E+00              /* K =  1: 16 */
(PID.TID 0000.0001)     ;
(PID.TID 0000.0001) wUnit2rVel = /* convert units: wSpeed -> rVel (=1 if z-coord)*/
(PID.TID 0000.0001)    16 @  1.000000000000000E+00              /* K =  1: 16 */
(PID.TID 0000.0001)     ;
(PID.TID 0000.0001) dBdrRef = /* Vertical grad. of reference buoyancy [(m/s/r)^2] */
(PID.TID 0000.0001)    15 @  0.000000000000000E+00              /* K =  1: 15 */
(PID.TID 0000.0001)     ;
(PID.TID 0000.0001) rotateGrid = /* use rotated grid ( True/False ) */
(PID.TID 0000.0001)                   F
(PID.TID 0000.0001)     ;
(PID.TID 0000.0001) phiEuler = /* Euler angle, rotation about original z-coordinate [rad] */
(PID.TID 0000.0001)                 0.000000000000000E+00
(PID.TID 0000.0001)     ;
(PID.TID 0000.0001) thetaEuler = /* Euler angle, rotation about new x-coordinate [rad] */
(PID.TID 0000.0001)                 0.000000000000000E+00
(PID.TID 0000.0001)     ;
(PID.TID 0000.0001) psiEuler = /* Euler angle, rotation about new z-coordinate [rad] */
(PID.TID 0000.0001)                 0.000000000000000E+00
(PID.TID 0000.0001)     ;
(PID.TID 0000.0001) dxF =  /* dxF(:,1,:,1) ( units: m ) */
(PID.TID 0000.0001)    42 @  5.345749921461356E+04              /* I =  1: 42 */
(PID.TID 0000.0001)     ;
(PID.TID 0000.0001) dxF =  /* dxF(1,:,1,:) ( units: m ) */
(PID.TID 0000.0001)                 5.345749921461356E+04,      /* J =  1 */
(PID.TID 0000.0001)                 6.851003143764105E+04,      /* J =  2 */
(PID.TID 0000.0001)                 8.339751699416524E+04,      /* J =  3 */
(PID.TID 0000.0001)                 9.808409062749070E+04,      /* J =  4 */
(PID.TID 0000.0001)                 1.125343710953429E+05,      /* J =  5 */
(PID.TID 0000.0001)                 1.267135464063795E+05,      /* J =  6 */
(PID.TID 0000.0001)                 1.405874576853274E+05,      /* J =  7 */
(PID.TID 0000.0001)                 1.541226814647045E+05,      /* J =  8 */
(PID.TID 0000.0001)                 1.672866102048804E+05,      /* J =  9 */
(PID.TID 0000.0001)                 1.800475308484964E+05,      /* J = 10 */
(PID.TID 0000.0001)                 1.923747012199971E+05,      /* J = 11 */
(PID.TID 0000.0001)                 2.042384240862251E+05,      /* J = 12 */
(PID.TID 0000.0001)                 2.156101186996563E+05,      /* J = 13 */
(PID.TID 0000.0001)                 2.264623896519241E+05,      /* J = 14 */
(PID.TID 0000.0001)                 2.367690928717577E+05,      /* J = 15 */
(PID.TID 0000.0001)                 2.465053986083400E+05,      /* J = 16 */
(PID.TID 0000.0001)                 2.556478512483520E+05,      /* J = 17 */
(PID.TID 0000.0001)                 2.641744258225996E+05,      /* J = 18 */
(PID.TID 0000.0001)                 2.720645810660936E+05,      /* J = 19 */
(PID.TID 0000.0001)                 2.792993089037565E+05       /* J = 20 */
(PID.TID 0000.0001)     ;
(PID.TID 0000.0001) dyF =  /* dyF(:,1,:,1) ( units: m ) */
(PID.TID 0000.0001)    42 @  3.126866438026091E+05              /* I =  1: 42 */
(PID.TID 0000.0001)     ;
(PID.TID 0000.0001) dyF =  /* dyF(1,:,1,:) ( units: m ) */
(PID.TID 0000.0001)    20 @  3.126866438026091E+05              /* J =  1: 20 */
(PID.TID 0000.0001)     ;
(PID.TID 0000.0001) dxG =  /* dxG(:,1,:,1) ( units: m ) */
(PID.TID 0000.0001)    42 @  4.588065960101153E+04              /* I =  1: 42 */
(PID.TID 0000.0001)     ;
(PID.TID 0000.0001) dxG =  /* dxG(1,:,1,:) ( units: m ) */
(PID.TID 0000.0001)                 4.588065960101153E+04,      /* J =  1 */
(PID.TID 0000.0001)                 6.100213802959342E+04,      /* J =  2 */
(PID.TID 0000.0001)                 7.597665696450579E+04,      /* J =  3 */
(PID.TID 0000.0001)                 9.076814147802141E+04,      /* J =  4 */
(PID.TID 0000.0001)                 1.053409575883663E+05,      /* J =  5 */
(PID.TID 0000.0001)                 1.196599981051027E+05,      /* J =  6 */
(PID.TID 0000.0001)                 1.336907672054259E+05,      /* J =  7 */
(PID.TID 0000.0001)                 1.473994635376230E+05,      /* J =  8 */
(PID.TID 0000.0001)                 1.607530616514898E+05,      /* J =  9 */
(PID.TID 0000.0001)                 1.737193915595329E+05,      /* J = 10 */
(PID.TID 0000.0001)                 1.862672162372875E+05,      /* J = 11 */
(PID.TID 0000.0001)                 1.983663068760452E+05,      /* J = 12 */
(PID.TID 0000.0001)                 2.099875157067021E+05,      /* J = 13 */
(PID.TID 0000.0001)                 2.211028462192875E+05,      /* J = 14 */
(PID.TID 0000.0001)                 2.316855206090085E+05,      /* J = 15 */
(PID.TID 0000.0001)                 2.417100442863276E+05,      /* J = 16 */
(PID.TID 0000.0001)                 2.511522672956614E+05,      /* J = 17 */
(PID.TID 0000.0001)                 2.599894424947394E+05,      /* J = 18 */
(PID.TID 0000.0001)                 2.682002803544621E+05,      /* J = 19 */
(PID.TID 0000.0001)                 2.757650002472408E+05       /* J = 20 */
(PID.TID 0000.0001)     ;
(PID.TID 0000.0001) dyG =  /* dyG(:,1,:,1) ( units: m ) */
(PID.TID 0000.0001)    42 @  3.126866438026091E+05              /* I =  1: 42 */
(PID.TID 0000.0001)     ;
(PID.TID 0000.0001) dyG =  /* dyG(1,:,1,:) ( units: m ) */
(PID.TID 0000.0001)    20 @  3.126866438026091E+05              /* J =  1: 20 */
(PID.TID 0000.0001)     ;
(PID.TID 0000.0001) dxC =  /* dxC(:,1,:,1) ( units: m ) */
(PID.TID 0000.0001)    42 @  5.345749921461356E+04              /* I =  1: 42 */
(PID.TID 0000.0001)     ;
(PID.TID 0000.0001) dxC =  /* dxC(1,:,1,:) ( units: m ) */
(PID.TID 0000.0001)                 5.345749921461356E+04,      /* J =  1 */
(PID.TID 0000.0001)                 6.851003143764105E+04,      /* J =  2 */
(PID.TID 0000.0001)                 8.339751699416524E+04,      /* J =  3 */
(PID.TID 0000.0001)                 9.808409062749070E+04,      /* J =  4 */
(PID.TID 0000.0001)                 1.125343710953429E+05,      /* J =  5 */
(PID.TID 0000.0001)                 1.267135464063795E+05,      /* J =  6 */
(PID.TID 0000.0001)                 1.405874576853274E+05,      /* J =  7 */
(PID.TID 0000.0001)                 1.541226814647045E+05,      /* J =  8 */
(PID.TID 0000.0001)                 1.672866102048804E+05,      /* J =  9 */
(PID.TID 0000.0001)                 1.800475308484964E+05,      /* J = 10 */
(PID.TID 0000.0001)                 1.923747012199971E+05,      /* J = 11 */
(PID.TID 0000.0001)                 2.042384240862251E+05,      /* J = 12 */
(PID.TID 0000.0001)                 2.156101186996563E+05,      /* J = 13 */
(PID.TID 0000.0001)                 2.264623896519241E+05,      /* J = 14 */
(PID.TID 0000.0001)                 2.367690928717577E+05,      /* J = 15 */
(PID.TID 0000.0001)                 2.465053986083400E+05,      /* J = 16 */
(PID.TID 0000.0001)                 2.556478512483520E+05,      /* J = 17 */
(PID.TID 0000.0001)                 2.641744258225996E+05,      /* J = 18 */
(PID.TID 0000.0001)                 2.720645810660936E+05,      /* J = 19 */
(PID.TID 0000.0001)                 2.792993089037565E+05       /* J = 20 */
(PID.TID 0000.0001)     ;
(PID.TID 0000.0001) dyC =  /* dyC(:,1,:,1) ( units: m ) */
(PID.TID 0000.0001)    42 @  3.126866438026091E+05              /* I =  1: 42 */
(PID.TID 0000.0001)     ;
(PID.TID 0000.0001) dyC =  /* dyC(1,:,1,:) ( units: m ) */
(PID.TID 0000.0001)    20 @  3.126866438026091E+05              /* J =  1: 20 */
(PID.TID 0000.0001)     ;
(PID.TID 0000.0001) dxV =  /* dxV(:,1,:,1) ( units: m ) */
(PID.TID 0000.0001)    42 @  4.588065960101153E+04              /* I =  1: 42 */
(PID.TID 0000.0001)     ;
(PID.TID 0000.0001) dxV =  /* dxV(1,:,1,:) ( units: m ) */
(PID.TID 0000.0001)                 4.588065960101153E+04,      /* J =  1 */
(PID.TID 0000.0001)                 6.100213802959342E+04,      /* J =  2 */
(PID.TID 0000.0001)                 7.597665696450579E+04,      /* J =  3 */
(PID.TID 0000.0001)                 9.076814147802141E+04,      /* J =  4 */
(PID.TID 0000.0001)                 1.053409575883663E+05,      /* J =  5 */
(PID.TID 0000.0001)                 1.196599981051027E+05,      /* J =  6 */
(PID.TID 0000.0001)                 1.336907672054259E+05,      /* J =  7 */
(PID.TID 0000.0001)                 1.473994635376230E+05,      /* J =  8 */
(PID.TID 0000.0001)                 1.607530616514898E+05,      /* J =  9 */
(PID.TID 0000.0001)                 1.737193915595329E+05,      /* J = 10 */
(PID.TID 0000.0001)                 1.862672162372875E+05,      /* J = 11 */
(PID.TID 0000.0001)                 1.983663068760452E+05,      /* J = 12 */
(PID.TID 0000.0001)                 2.099875157067021E+05,      /* J = 13 */
(PID.TID 0000.0001)                 2.211028462192875E+05,      /* J = 14 */
(PID.TID 0000.0001)                 2.316855206090085E+05,      /* J = 15 */
(PID.TID 0000.0001)                 2.417100442863276E+05,      /* J = 16 */
(PID.TID 0000.0001)                 2.511522672956614E+05,      /* J = 17 */
(PID.TID 0000.0001)                 2.599894424947394E+05,      /* J = 18 */
(PID.TID 0000.0001)                 2.682002803544621E+05,      /* J = 19 */
(PID.TID 0000.0001)                 2.757650002472408E+05       /* J = 20 */
(PID.TID 0000.0001)     ;
(PID.TID 0000.0001) dyU =  /* dyU(:,1,:,1) ( units: m ) */
(PID.TID 0000.0001)    42 @  3.126866438026091E+05              /* I =  1: 42 */
(PID.TID 0000.0001)     ;
(PID.TID 0000.0001) dyU =  /* dyU(1,:,1,:) ( units: m ) */
(PID.TID 0000.0001)    20 @  3.126866438026091E+05              /* J =  1: 20 */
(PID.TID 0000.0001)     ;
(PID.TID 0000.0001) rA  =  /* rA (:,1,:,1) ( units: m^2 ) */
(PID.TID 0000.0001)    42 @  1.671376785519299E+10              /* I =  1: 42 */
(PID.TID 0000.0001)     ;
(PID.TID 0000.0001) rA  =  /* rA (1,:,1,:) ( units: m^2 ) */
(PID.TID 0000.0001)                 1.671376785519299E+10,      /* J =  1 */
(PID.TID 0000.0001)                 2.142002110131771E+10,      /* J =  2 */
(PID.TID 0000.0001)                 2.607467164043704E+10,      /* J =  3 */
(PID.TID 0000.0001)                 3.066650601170349E+10,      /* J =  4 */
(PID.TID 0000.0001)                 3.518446208391881E+10,      /* J =  5 */
(PID.TID 0000.0001)                 3.961765570517892E+10,      /* J =  6 */
(PID.TID 0000.0001)                 4.395540692374860E+10,      /* J =  7 */
(PID.TID 0000.0001)                 4.818726571700000E+10,      /* J =  8 */
(PID.TID 0000.0001)                 5.230303716643333E+10,      /* J =  9 */
(PID.TID 0000.0001)                 5.629280601812741E+10,      /* J = 10 */
(PID.TID 0000.0001)                 6.014696056945659E+10,      /* J = 11 */
(PID.TID 0000.0001)                 6.385621582452237E+10,      /* J = 12 */
(PID.TID 0000.0001)                 6.741163586252303E+10,      /* J = 13 */
(PID.TID 0000.0001)                 7.080465536516846E+10,      /* J = 14 */
(PID.TID 0000.0001)                 7.402710025128452E+10,      /* J = 15 */
(PID.TID 0000.0001)                 7.707120736888658E+10,      /* J = 16 */
(PID.TID 0000.0001)                 7.992964319729683E+10,      /* J = 17 */
(PID.TID 0000.0001)                 8.259552151423444E+10,      /* J = 18 */
(PID.TID 0000.0001)                 8.506241998533159E+10,      /* J = 19 */
(PID.TID 0000.0001)                 8.732439563609566E+10       /* J = 20 */
(PID.TID 0000.0001)     ;
(PID.TID 0000.0001) rAw =  /* rAw(:,1,:,1) ( units: m^2 ) */
(PID.TID 0000.0001)    42 @  1.671376785519299E+10              /* I =  1: 42 */
(PID.TID 0000.0001)     ;
(PID.TID 0000.0001) rAw =  /* rAw(1,:,1,:) ( units: m^2 ) */
(PID.TID 0000.0001)                 1.671376785519299E+10,      /* J =  1 */
(PID.TID 0000.0001)                 2.142002110131771E+10,      /* J =  2 */
(PID.TID 0000.0001)                 2.607467164043704E+10,      /* J =  3 */
(PID.TID 0000.0001)                 3.066650601170349E+10,      /* J =  4 */
(PID.TID 0000.0001)                 3.518446208391881E+10,      /* J =  5 */
(PID.TID 0000.0001)                 3.961765570517892E+10,      /* J =  6 */
(PID.TID 0000.0001)                 4.395540692374860E+10,      /* J =  7 */
(PID.TID 0000.0001)                 4.818726571700000E+10,      /* J =  8 */
(PID.TID 0000.0001)                 5.230303716643333E+10,      /* J =  9 */
(PID.TID 0000.0001)                 5.629280601812741E+10,      /* J = 10 */
(PID.TID 0000.0001)                 6.014696056945659E+10,      /* J = 11 */
(PID.TID 0000.0001)                 6.385621582452237E+10,      /* J = 12 */
(PID.TID 0000.0001)                 6.741163586252303E+10,      /* J = 13 */
(PID.TID 0000.0001)                 7.080465536516846E+10,      /* J = 14 */
(PID.TID 0000.0001)                 7.402710025128452E+10,      /* J = 15 */
(PID.TID 0000.0001)                 7.707120736888658E+10,      /* J = 16 */
(PID.TID 0000.0001)                 7.992964319729683E+10,      /* J = 17 */
(PID.TID 0000.0001)                 8.259552151423444E+10,      /* J = 18 */
(PID.TID 0000.0001)                 8.506241998533159E+10,      /* J = 19 */
(PID.TID 0000.0001)                 8.732439563609566E+10       /* J = 20 */
(PID.TID 0000.0001)     ;
(PID.TID 0000.0001) rAs =  /* rAs(:,1,:,1) ( units: m^2 ) */
(PID.TID 0000.0001)    42 @  1.434482916112175E+10              /* I =  1: 42 */
(PID.TID 0000.0001)     ;
(PID.TID 0000.0001) rAs =  /* rAs(1,:,1,:) ( units: m^2 ) */
(PID.TID 0000.0001)                 1.434482916112175E+10,      /* J =  1 */
(PID.TID 0000.0001)                 1.907263880047594E+10,      /* J =  2 */
(PID.TID 0000.0001)                 2.375450078239423E+10,      /* J =  3 */
(PID.TID 0000.0001)                 2.837913609127881E+10,      /* J =  4 */
(PID.TID 0000.0001)                 3.293540357560110E+10,      /* J =  5 */
(PID.TID 0000.0001)                 3.741232678790870E+10,      /* J =  6 */
(PID.TID 0000.0001)                 4.179912042805190E+10,      /* J =  7 */
(PID.TID 0000.0001)                 4.608521632591324E+10,      /* J =  8 */
(PID.TID 0000.0001)                 5.026028890105701E+10,      /* J =  9 */
(PID.TID 0000.0001)                 5.431428003795675E+10,      /* J = 10 */
(PID.TID 0000.0001)                 5.823742331687641E+10,      /* J = 11 */
(PID.TID 0000.0001)                 6.202026754202965E+10,      /* J = 12 */
(PID.TID 0000.0001)                 6.565369951034003E+10,      /* J = 13 */
(PID.TID 0000.0001)                 6.912896596594559E+10,      /* J = 14 */
(PID.TID 0000.0001)                 7.243769468755632E+10,      /* J = 15 */
(PID.TID 0000.0001)                 7.557191465787256E+10,      /* J = 16 */
(PID.TID 0000.0001)                 7.852407526645966E+10,      /* J = 17 */
(PID.TID 0000.0001)                 8.128706449983365E+10,      /* J = 18 */
(PID.TID 0000.0001)                 8.385422607492096E+10,      /* J = 19 */
(PID.TID 0000.0001)                 8.621937547463148E+10       /* J = 20 */
(PID.TID 0000.0001)     ;
(PID.TID 0000.0001) globalArea = /* Integrated horizontal Area (m^2) */
(PID.TID 0000.0001)                 3.507619373042164E+13
(PID.TID 0000.0001)     ;
(PID.TID 0000.0001) the_run_name = /* Name of this simulation */
(PID.TID 0000.0001)               'OBC + Biogeo S.Ocean Box'
(PID.TID 0000.0001)     ;
(PID.TID 0000.0001) // =======================================================
(PID.TID 0000.0001) // End of Model config. summary
(PID.TID 0000.0001) // =======================================================
(PID.TID 0000.0001) 
(PID.TID 0000.0001) == Packages configuration : Check & print summary ==
(PID.TID 0000.0001) 
(PID.TID 0000.0001) OBCS_CHECK: #define ALLOW_OBCS
(PID.TID 0000.0001) OBCS_CHECK: start summary:
(PID.TID 0000.0001) useOBCSprescribe = /* prescribe OB values */
(PID.TID 0000.0001)                   T
(PID.TID 0000.0001)     ;
(PID.TID 0000.0001) useOBCSbalance = /* balance the flow through OB */
(PID.TID 0000.0001)                   F
(PID.TID 0000.0001)     ;
(PID.TID 0000.0001) OBCS_uvApplyFac = /* Factor to apply to U,V 2nd column/row */
(PID.TID 0000.0001)                 1.000000000000000E+00
(PID.TID 0000.0001)     ;
(PID.TID 0000.0001) OBCS_u1_adv_T = /* Temp uses upwind adv-scheme @ OB */
(PID.TID 0000.0001)                       1
(PID.TID 0000.0001)     ;
(PID.TID 0000.0001) OBCS_u1_adv_S = /* Salt uses upwind adv-scheme @ OB */
(PID.TID 0000.0001)                       1
(PID.TID 0000.0001)     ;
(PID.TID 0000.0001) OBCS_u1_adv_Tr = /* pTr uses upwind adv-scheme @ OB */
(PID.TID 0000.0001)     5 @        1
(PID.TID 0000.0001)     ;
(PID.TID 0000.0001) OBCS_monitorFreq = /* monitor output frequency [s] */
(PID.TID 0000.0001)                 1.000000000000000E+00
(PID.TID 0000.0001)     ;
(PID.TID 0000.0001) OBCS_monSelect = /* select group of variables to monitor */
(PID.TID 0000.0001)                       1
(PID.TID 0000.0001)     ;
(PID.TID 0000.0001) useOBCStides = /* apply tidal forcing through OB */
(PID.TID 0000.0001)                   F
(PID.TID 0000.0001)     ;
(PID.TID 0000.0001) tidalPeriod = /* (s) */
(PID.TID 0000.0001)    10 @  0.000000000000000E+00              /* I =  1: 10 */
(PID.TID 0000.0001)     ;
(PID.TID 0000.0001) OB_indexNone = /* null value for OB index (i.e. no OB) */
(PID.TID 0000.0001)                     -99
(PID.TID 0000.0001)     ;
(PID.TID 0000.0001) ======== Tile bi=   1 , bj=   1 ========
(PID.TID 0000.0001)  OB_Jn = /* Northern OB local indices */
(PID.TID 0000.0001)    20 @      -99                            /* I = -2: 17 */
(PID.TID 0000.0001)  OB_Js = /* Southern OB local indices */
(PID.TID 0000.0001)    20 @      -99                            /* I = -2: 17 */
(PID.TID 0000.0001)  OB_Ie = /* Eastern OB local indices */
(PID.TID 0000.0001)    16 @      -99                            /* J = -2: 13 */
(PID.TID 0000.0001)  OB_Iw = /* Western OB local indices */
(PID.TID 0000.0001)    16 @        1                            /* J = -2: 13 */
(PID.TID 0000.0001) ======== Tile bi=   2 , bj=   1 ========
(PID.TID 0000.0001)  OB_Jn = /* Northern OB local indices */
(PID.TID 0000.0001)    20 @      -99                            /* I = -2: 17 */
(PID.TID 0000.0001)  OB_Js = /* Southern OB local indices */
(PID.TID 0000.0001)    20 @      -99                            /* I = -2: 17 */
(PID.TID 0000.0001)  OB_Ie = /* Eastern OB local indices */
(PID.TID 0000.0001)    16 @      -99                            /* J = -2: 13 */
(PID.TID 0000.0001)  OB_Iw = /* Western OB local indices */
(PID.TID 0000.0001)    16 @      -99                            /* J = -2: 13 */
(PID.TID 0000.0001) ======== Tile bi=   3 , bj=   1 ========
(PID.TID 0000.0001)  OB_Jn = /* Northern OB local indices */
(PID.TID 0000.0001)    20 @      -99                            /* I = -2: 17 */
(PID.TID 0000.0001)  OB_Js = /* Southern OB local indices */
(PID.TID 0000.0001)    20 @      -99                            /* I = -2: 17 */
(PID.TID 0000.0001)  OB_Ie = /* Eastern OB local indices */
(PID.TID 0000.0001)    16 @       14                            /* J = -2: 13 */
(PID.TID 0000.0001)  OB_Iw = /* Western OB local indices */
(PID.TID 0000.0001)    16 @      -99                            /* J = -2: 13 */
(PID.TID 0000.0001) ======== Tile bi=   1 , bj=   2 ========
(PID.TID 0000.0001)  OB_Jn = /* Northern OB local indices */
(PID.TID 0000.0001)    20 @       10                            /* I = -2: 17 */
(PID.TID 0000.0001)  OB_Js = /* Southern OB local indices */
(PID.TID 0000.0001)    20 @      -99                            /* I = -2: 17 */
(PID.TID 0000.0001)  OB_Ie = /* Eastern OB local indices */
(PID.TID 0000.0001)    16 @      -99                            /* J = -2: 13 */
(PID.TID 0000.0001)  OB_Iw = /* Western OB local indices */
(PID.TID 0000.0001)    16 @        1                            /* J = -2: 13 */
(PID.TID 0000.0001) ======== Tile bi=   2 , bj=   2 ========
(PID.TID 0000.0001)  OB_Jn = /* Northern OB local indices */
(PID.TID 0000.0001)    20 @       10                            /* I = -2: 17 */
(PID.TID 0000.0001)  OB_Js = /* Southern OB local indices */
(PID.TID 0000.0001)    20 @      -99                            /* I = -2: 17 */
(PID.TID 0000.0001)  OB_Ie = /* Eastern OB local indices */
(PID.TID 0000.0001)    16 @      -99                            /* J = -2: 13 */
(PID.TID 0000.0001)  OB_Iw = /* Western OB local indices */
(PID.TID 0000.0001)    16 @      -99                            /* J = -2: 13 */
(PID.TID 0000.0001) ======== Tile bi=   3 , bj=   2 ========
(PID.TID 0000.0001)  OB_Jn = /* Northern OB local indices */
(PID.TID 0000.0001)    20 @       10                            /* I = -2: 17 */
(PID.TID 0000.0001)  OB_Js = /* Southern OB local indices */
(PID.TID 0000.0001)    20 @      -99                            /* I = -2: 17 */
(PID.TID 0000.0001)  OB_Ie = /* Eastern OB local indices */
(PID.TID 0000.0001)    16 @       14                            /* J = -2: 13 */
(PID.TID 0000.0001)  OB_Iw = /* Western OB local indices */
(PID.TID 0000.0001)    16 @      -99                            /* J = -2: 13 */
(PID.TID 0000.0001) OBCS_CHECK: end summary.
(PID.TID 0000.0001) OBCS_CHECK: #define ALLOW_ORLANSKI
(PID.TID 0000.0001) OBCS_CHECK: set-up OK
(PID.TID 0000.0001) OBCS_CHECK: check Inside Mask and OB locations: OK
(PID.TID 0000.0001) GMREDI_CHECK: #define GMREDI
(PID.TID 0000.0001) GM_AdvForm =     /* if FALSE => use SkewFlux Form */
(PID.TID 0000.0001)                   T
(PID.TID 0000.0001)     ;
(PID.TID 0000.0001) GM_InMomAsStress = /* if TRUE => apply as Eddy Stress */
(PID.TID 0000.0001)                   F
(PID.TID 0000.0001)     ;
(PID.TID 0000.0001) GM_AdvSeparate = /* Calc Bolus & Euler Adv. separately */
(PID.TID 0000.0001)                   F
(PID.TID 0000.0001)     ;
(PID.TID 0000.0001) GM_ExtraDiag =   /* Tensor Extra Diag (line 1&2) non 0 */
(PID.TID 0000.0001)                   T
(PID.TID 0000.0001)     ;
(PID.TID 0000.0001) GM_isopycK =    /* Background Isopyc. Diffusivity [m^2/s] */
(PID.TID 0000.0001)                 1.000000000000000E+03
(PID.TID 0000.0001)     ;
(PID.TID 0000.0001) GM_skewflx*K =  /* Background GM_SkewFlx Diffusivity [m^2/s] */
(PID.TID 0000.0001)                 0.000000000000000E+00
(PID.TID 0000.0001)     ;
(PID.TID 0000.0001) GM_advec*K =    /* Backg. GM-Advec(=Bolus) Diffusivity [m^2/s]*/
(PID.TID 0000.0001)                 1.000000000000000E+03
(PID.TID 0000.0001)     ;
(PID.TID 0000.0001) GM_Kmin_horiz = /* Minimum Horizontal Diffusivity [m^2/s] */
(PID.TID 0000.0001)                 1.000000000000000E+02
(PID.TID 0000.0001)     ;
(PID.TID 0000.0001) GM_Visbeck_alpha = /* Visbeck alpha coeff. [-] */
(PID.TID 0000.0001)                 0.000000000000000E+00
(PID.TID 0000.0001)     ;
(PID.TID 0000.0001) GM_Small_Number =  /* epsilon used in slope calc */
(PID.TID 0000.0001)                 9.999999999999999E-21
(PID.TID 0000.0001)     ;
(PID.TID 0000.0001) GM_slopeSqCutoff = /* Slope^2 cut-off value */
(PID.TID 0000.0001)                 1.000000000000000E+48
(PID.TID 0000.0001)     ;
(PID.TID 0000.0001) GM_taper_scheme =  /* Type of Tapering/Clipping scheme */
(PID.TID 0000.0001)               'gkw91                                   '
(PID.TID 0000.0001)     ;
(PID.TID 0000.0001) GM_maxSlope =  /* Maximum Slope (Tapering/Clipping) */
(PID.TID 0000.0001)                 1.000000000000000E-02
(PID.TID 0000.0001)     ;
(PID.TID 0000.0001) GM_facTrL2dz = /* Minimum Trans.Layer Thick. (factor of dz) */
(PID.TID 0000.0001)                 1.000000000000000E+00
(PID.TID 0000.0001)     ;
(PID.TID 0000.0001) GM_facTrL2ML = /* Max.Trans.Layer Thick. (factor of MxL Depth)*/
(PID.TID 0000.0001)                 5.000000000000000E+00
(PID.TID 0000.0001)     ;
(PID.TID 0000.0001) GM_maxTransLay = /* Maximum Transition Layer Thickness [m] */
(PID.TID 0000.0001)                 5.000000000000000E+02
(PID.TID 0000.0001)     ;
(PID.TID 0000.0001) GM_UseBVP = /* if TRUE => use bvp a la Ferrari et al. (2010) */
(PID.TID 0000.0001)                   F
(PID.TID 0000.0001)     ;
(PID.TID 0000.0001) GM_BVP_ModeNumber = /* Vertical mode number for BVP wave speed */
(PID.TID 0000.0001)                       1
(PID.TID 0000.0001)     ;
(PID.TID 0000.0001) GM_BVP_cMin = /* Minimum wave speed for BVP [m/s] */
(PID.TID 0000.0001)                 1.000000000000000E-01
(PID.TID 0000.0001)     ;
(PID.TID 0000.0001) GM_useSubMeso = /* if TRUE => use Sub-Meso param. (B.Fox-Kemper) */
(PID.TID 0000.0001)                   F
(PID.TID 0000.0001)     ;
(PID.TID 0000.0001) subMeso_Ceff = /* efficiency coeff. of Mixed-Layer Eddies [-] */
(PID.TID 0000.0001)                 7.000000000000001E-02
(PID.TID 0000.0001)     ;
(PID.TID 0000.0001) subMeso_invTau = /* inverse of Sub-Meso mixing time-scale [/s] */
(PID.TID 0000.0001)                 2.000000000000000E-06
(PID.TID 0000.0001)     ;
(PID.TID 0000.0001) subMeso_LfMin = /* minimum length-scale "Lf" [m] */
(PID.TID 0000.0001)                 1.000000000000000E+03
(PID.TID 0000.0001)     ;
(PID.TID 0000.0001) subMeso_Lmax = /* maximum grid-scale length [m] */
(PID.TID 0000.0001)                 1.100000000000000E+05
(PID.TID 0000.0001)     ;
(PID.TID 0000.0001) PTRACERS_CHECK: #define ALLOW_PTRACERS
(PID.TID 0000.0001) // ===================================
(PID.TID 0000.0001) // PTRACERS parameters
(PID.TID 0000.0001) // ===================================
(PID.TID 0000.0001) PTRACERS_numInUse = /* number of tracers */
(PID.TID 0000.0001)                       5
(PID.TID 0000.0001)     ;
(PID.TID 0000.0001) PTRACERS_Iter0 = /* timestep number when tracers are initialized */
(PID.TID 0000.0001)                       0
(PID.TID 0000.0001)     ;
(PID.TID 0000.0001) PTRACERS_startAllTrc =/* all tracers start @ startTime */
(PID.TID 0000.0001)                   T
(PID.TID 0000.0001)     ;
(PID.TID 0000.0001) PTRACERS_doAB_onGpTr =/* apply AB on Tendencies (rather than on Tracers) */
(PID.TID 0000.0001)                   T
(PID.TID 0000.0001)     ;
(PID.TID 0000.0001) PTRACERS_addSrelax2EmP =/* add Salt relaxation to EmP */
(PID.TID 0000.0001)                   F
(PID.TID 0000.0001)     ;
(PID.TID 0000.0001) PTRACERS_dTLev =   /* Ptracer timestep ( s ) */
(PID.TID 0000.0001)    15 @  9.000000000000000E+02              /* K =  1: 15 */
(PID.TID 0000.0001)     ;
(PID.TID 0000.0001) PTRACERS_monitorFreq = /* Frequency^-1 for monitor output (s) */
(PID.TID 0000.0001)                 1.000000000000000E+00
(PID.TID 0000.0001)     ;
(PID.TID 0000.0001) PTRACERS_dumpFreq = /* Frequency^-1 for snapshot output (s) */
(PID.TID 0000.0001)                 2.592000000000000E+06
(PID.TID 0000.0001)     ;
(PID.TID 0000.0001) PTRACERS_taveFreq = /* Frequency^-1 for time-Aver. output (s) */
(PID.TID 0000.0001)                 0.000000000000000E+00
(PID.TID 0000.0001)     ;
(PID.TID 0000.0001) PTRACERS_useRecords = /* all tracers in 1 file */
(PID.TID 0000.0001)                   F
(PID.TID 0000.0001)     ;
(PID.TID 0000.0001) PTRACERS_timeave_mnc = /* use MNC for Tave output */
(PID.TID 0000.0001)                   F
(PID.TID 0000.0001)     ;
(PID.TID 0000.0001) PTRACERS_snapshot_mnc = /* use MNC for snapshot output */
(PID.TID 0000.0001)                   F
(PID.TID 0000.0001)     ;
(PID.TID 0000.0001) PTRACERS_pickup_write_mnc = /* use MNC for writing pickups */
(PID.TID 0000.0001)                   F
(PID.TID 0000.0001)     ;
(PID.TID 0000.0001) PTRACERS_pickup_read_mnc = /* use MNC for reading pickups */
(PID.TID 0000.0001)                   F
(PID.TID 0000.0001)     ;
(PID.TID 0000.0001)  -----------------------------------
(PID.TID 0000.0001)  tracer number :    1
(PID.TID 0000.0001) PTRACERS_names = /* Tracer short name */
(PID.TID 0000.0001)               'DIC'
(PID.TID 0000.0001)     ;
(PID.TID 0000.0001) PTRACERS_long_names = /* Tracer long name */
(PID.TID 0000.0001)               'Dissolved Inorganic Carbon (DIC) [mol C/m^3]'
(PID.TID 0000.0001)     ;
(PID.TID 0000.0001) PTRACERS_ioLabel = /* tracer IO Label */
(PID.TID 0000.0001)               '01'
(PID.TID 0000.0001)     ;
(PID.TID 0000.0001) PTRACERS_advScheme = /* Advection Scheme */
(PID.TID 0000.0001)                      77
(PID.TID 0000.0001)     ;
(PID.TID 0000.0001) PTRACERS_SOM_Advection = /* tracer uses SOM advection scheme */
(PID.TID 0000.0001)                   F
(PID.TID 0000.0001)     ;
(PID.TID 0000.0001) PTRACERS_ImplVertAdv = /* implicit vert. advection flag */
(PID.TID 0000.0001)                   F
(PID.TID 0000.0001)     ;
(PID.TID 0000.0001) PTRACERS_MultiDimAdv = /* tracer uses Multi-Dim advection */
(PID.TID 0000.0001)                   T
(PID.TID 0000.0001)     ;
(PID.TID 0000.0001) PTRACERS_AdamsBashGtr = /* apply AB on tracer tendency */
(PID.TID 0000.0001)                   F
(PID.TID 0000.0001)     ;
(PID.TID 0000.0001) PTRACERS_AdamsBash_Tr = /* apply AB on passive tracer */
(PID.TID 0000.0001)                   F
(PID.TID 0000.0001)     ;
(PID.TID 0000.0001) PTRACERS_diffKh = /* Laplacian Diffusivity */
(PID.TID 0000.0001)                 0.000000000000000E+00
(PID.TID 0000.0001)     ;
(PID.TID 0000.0001) PTRACERS_diffK4 = /* Biharmonic Diffusivity */
(PID.TID 0000.0001)                 0.000000000000000E+00
(PID.TID 0000.0001)     ;
(PID.TID 0000.0001) PTRACERS_diffKrNr = /* Vertical Diffusivity */
(PID.TID 0000.0001)    15 @  3.000000000000000E-05              /* K =  1: 15 */
(PID.TID 0000.0001)     ;
(PID.TID 0000.0001) PTRACERS_useGMRedi = /* apply GM-Redi */
(PID.TID 0000.0001)                   T
(PID.TID 0000.0001)     ;
(PID.TID 0000.0001) PTRACERS_useDWNSLP = /* apply DOWN-SLOPE Flow */
(PID.TID 0000.0001)                   F
(PID.TID 0000.0001)     ;
(PID.TID 0000.0001) PTRACERS_useKPP = /* apply KPP scheme */
(PID.TID 0000.0001)                   F
(PID.TID 0000.0001)     ;
(PID.TID 0000.0001) PTRACERS_ref = /* Reference vertical profile */
(PID.TID 0000.0001)                 2.028200000000000E+00,      /* K =  1 */
(PID.TID 0000.0001)                 2.060900000000000E+00,      /* K =  2 */
(PID.TID 0000.0001)                 2.120600000000000E+00,      /* K =  3 */
(PID.TID 0000.0001)                 2.158100000000000E+00,      /* K =  4 */
(PID.TID 0000.0001)                 2.190400000000000E+00,      /* K =  5 */
(PID.TID 0000.0001)                 2.218800000000000E+00,      /* K =  6 */
(PID.TID 0000.0001)                 2.247400000000000E+00,      /* K =  7 */
(PID.TID 0000.0001)                 2.269900000000000E+00,      /* K =  8 */
(PID.TID 0000.0001)                 2.279200000000000E+00,      /* K =  9 */
(PID.TID 0000.0001)                 2.281400000000000E+00,      /* K = 10 */
(PID.TID 0000.0001)                 2.281500000000000E+00,      /* K = 11 */
(PID.TID 0000.0001)                 2.280600000000000E+00,      /* K = 12 */
(PID.TID 0000.0001)                 2.280000000000000E+00,      /* K = 13 */
(PID.TID 0000.0001)                 2.276000000000000E+00,      /* K = 14 */
(PID.TID 0000.0001)                 2.275800000000000E+00       /* K = 15 */
(PID.TID 0000.0001)     ;
(PID.TID 0000.0001) PTRACERS_EvPrRn =/* tracer conc. in Evap. & Rain */
(PID.TID 0000.0001)                 0.000000000000000E+00
(PID.TID 0000.0001)     ;
(PID.TID 0000.0001)  -----------------------------------
(PID.TID 0000.0001)  tracer number :    2
(PID.TID 0000.0001) PTRACERS_names = /* Tracer short name */
(PID.TID 0000.0001)               'Alk'
(PID.TID 0000.0001)     ;
(PID.TID 0000.0001) PTRACERS_long_names = /* Tracer long name */
(PID.TID 0000.0001)               'Alkalinity (Alk) [mol eq/m^3]'
(PID.TID 0000.0001)     ;
(PID.TID 0000.0001) PTRACERS_ioLabel = /* tracer IO Label */
(PID.TID 0000.0001)               '02'
(PID.TID 0000.0001)     ;
(PID.TID 0000.0001) PTRACERS_advScheme = /* Advection Scheme */
(PID.TID 0000.0001)                      77
(PID.TID 0000.0001)     ;
(PID.TID 0000.0001) PTRACERS_SOM_Advection = /* tracer uses SOM advection scheme */
(PID.TID 0000.0001)                   F
(PID.TID 0000.0001)     ;
(PID.TID 0000.0001) PTRACERS_ImplVertAdv = /* implicit vert. advection flag */
(PID.TID 0000.0001)                   F
(PID.TID 0000.0001)     ;
(PID.TID 0000.0001) PTRACERS_MultiDimAdv = /* tracer uses Multi-Dim advection */
(PID.TID 0000.0001)                   T
(PID.TID 0000.0001)     ;
(PID.TID 0000.0001) PTRACERS_AdamsBashGtr = /* apply AB on tracer tendency */
(PID.TID 0000.0001)                   F
(PID.TID 0000.0001)     ;
(PID.TID 0000.0001) PTRACERS_AdamsBash_Tr = /* apply AB on passive tracer */
(PID.TID 0000.0001)                   F
(PID.TID 0000.0001)     ;
(PID.TID 0000.0001) PTRACERS_diffKh = /* Laplacian Diffusivity */
(PID.TID 0000.0001)                 0.000000000000000E+00
(PID.TID 0000.0001)     ;
(PID.TID 0000.0001) PTRACERS_diffK4 = /* Biharmonic Diffusivity */
(PID.TID 0000.0001)                 0.000000000000000E+00
(PID.TID 0000.0001)     ;
(PID.TID 0000.0001) PTRACERS_diffKrNr = /* Vertical Diffusivity */
(PID.TID 0000.0001)    15 @  3.000000000000000E-05              /* K =  1: 15 */
(PID.TID 0000.0001)     ;
(PID.TID 0000.0001) PTRACERS_useGMRedi = /* apply GM-Redi */
(PID.TID 0000.0001)                   T
(PID.TID 0000.0001)     ;
(PID.TID 0000.0001) PTRACERS_useDWNSLP = /* apply DOWN-SLOPE Flow */
(PID.TID 0000.0001)                   F
(PID.TID 0000.0001)     ;
(PID.TID 0000.0001) PTRACERS_useKPP = /* apply KPP scheme */
(PID.TID 0000.0001)                   F
(PID.TID 0000.0001)     ;
(PID.TID 0000.0001) PTRACERS_ref = /* Reference vertical profile */
(PID.TID 0000.0001)                 2.308600000000000E+00,      /* K =  1 */
(PID.TID 0000.0001)                 2.314900000000000E+00,      /* K =  2 */
(PID.TID 0000.0001)                 2.316400000000000E+00,      /* K =  3 */
(PID.TID 0000.0001)                 2.311200000000000E+00,      /* K =  4 */
(PID.TID 0000.0001)                 2.309800000000000E+00,      /* K =  5 */
(PID.TID 0000.0001)                 2.316000000000000E+00,      /* K =  6 */
(PID.TID 0000.0001)                 2.331300000000000E+00,      /* K =  7 */
(PID.TID 0000.0001)                 2.351700000000000E+00,      /* K =  8 */
(PID.TID 0000.0001)                 2.366700000000000E+00,      /* K =  9 */
(PID.TID 0000.0001)                 2.376100000000000E+00,      /* K = 10 */
(PID.TID 0000.0001)                 2.383200000000000E+00,      /* K = 11 */
(PID.TID 0000.0001)                 2.386200000000000E+00,      /* K = 12 */
(PID.TID 0000.0001)                 2.388100000000000E+00,      /* K = 13 */
(PID.TID 0000.0001)                 2.386300000000000E+00,      /* K = 14 */
(PID.TID 0000.0001)                 2.386700000000000E+00       /* K = 15 */
(PID.TID 0000.0001)     ;
(PID.TID 0000.0001) PTRACERS_EvPrRn =/* tracer conc. in Evap. & Rain */
(PID.TID 0000.0001)                 0.000000000000000E+00
(PID.TID 0000.0001)     ;
(PID.TID 0000.0001)  -----------------------------------
(PID.TID 0000.0001)  tracer number :    3
(PID.TID 0000.0001) PTRACERS_names = /* Tracer short name */
(PID.TID 0000.0001)               'PO4'
(PID.TID 0000.0001)     ;
(PID.TID 0000.0001) PTRACERS_long_names = /* Tracer long name */
(PID.TID 0000.0001)               'Phosphate (PO4) [mol P/m^3]'
(PID.TID 0000.0001)     ;
(PID.TID 0000.0001) PTRACERS_ioLabel = /* tracer IO Label */
(PID.TID 0000.0001)               '03'
(PID.TID 0000.0001)     ;
(PID.TID 0000.0001) PTRACERS_advScheme = /* Advection Scheme */
(PID.TID 0000.0001)                      77
(PID.TID 0000.0001)     ;
(PID.TID 0000.0001) PTRACERS_SOM_Advection = /* tracer uses SOM advection scheme */
(PID.TID 0000.0001)                   F
(PID.TID 0000.0001)     ;
(PID.TID 0000.0001) PTRACERS_ImplVertAdv = /* implicit vert. advection flag */
(PID.TID 0000.0001)                   F
(PID.TID 0000.0001)     ;
(PID.TID 0000.0001) PTRACERS_MultiDimAdv = /* tracer uses Multi-Dim advection */
(PID.TID 0000.0001)                   T
(PID.TID 0000.0001)     ;
(PID.TID 0000.0001) PTRACERS_AdamsBashGtr = /* apply AB on tracer tendency */
(PID.TID 0000.0001)                   F
(PID.TID 0000.0001)     ;
(PID.TID 0000.0001) PTRACERS_AdamsBash_Tr = /* apply AB on passive tracer */
(PID.TID 0000.0001)                   F
(PID.TID 0000.0001)     ;
(PID.TID 0000.0001) PTRACERS_diffKh = /* Laplacian Diffusivity */
(PID.TID 0000.0001)                 0.000000000000000E+00
(PID.TID 0000.0001)     ;
(PID.TID 0000.0001) PTRACERS_diffK4 = /* Biharmonic Diffusivity */
(PID.TID 0000.0001)                 0.000000000000000E+00
(PID.TID 0000.0001)     ;
(PID.TID 0000.0001) PTRACERS_diffKrNr = /* Vertical Diffusivity */
(PID.TID 0000.0001)    15 @  3.000000000000000E-05              /* K =  1: 15 */
(PID.TID 0000.0001)     ;
(PID.TID 0000.0001) PTRACERS_useGMRedi = /* apply GM-Redi */
(PID.TID 0000.0001)                   T
(PID.TID 0000.0001)     ;
(PID.TID 0000.0001) PTRACERS_useDWNSLP = /* apply DOWN-SLOPE Flow */
(PID.TID 0000.0001)                   F
(PID.TID 0000.0001)     ;
(PID.TID 0000.0001) PTRACERS_useKPP = /* apply KPP scheme */
(PID.TID 0000.0001)                   F
(PID.TID 0000.0001)     ;
(PID.TID 0000.0001) PTRACERS_ref = /* Reference vertical profile */
(PID.TID 0000.0001)                 5.438000000000000E-04,      /* K =  1 */
(PID.TID 0000.0001)                 7.821000000000000E-04,      /* K =  2 */
(PID.TID 0000.0001)                 1.133500000000000E-03,      /* K =  3 */
(PID.TID 0000.0001)                 1.491300000000000E-03,      /* K =  4 */
(PID.TID 0000.0001)                 1.860600000000000E-03,      /* K =  5 */
(PID.TID 0000.0001)                 2.198600000000000E-03,      /* K =  6 */
(PID.TID 0000.0001)                 2.396600000000000E-03,      /* K =  7 */
(PID.TID 0000.0001)                 2.418700000000000E-03,      /* K =  8 */
(PID.TID 0000.0001)                 2.404600000000000E-03,      /* K =  9 */
(PID.TID 0000.0001)                 2.329100000000000E-03,      /* K = 10 */
(PID.TID 0000.0001)                 2.292200000000000E-03,      /* K = 11 */
(PID.TID 0000.0001)                 2.288600000000000E-03,      /* K = 12 */
(PID.TID 0000.0001)                 2.260800000000000E-03,      /* K = 13 */
(PID.TID 0000.0001)                 2.235600000000000E-03,      /* K = 14 */
(PID.TID 0000.0001)                 2.229600000000000E-03       /* K = 15 */
(PID.TID 0000.0001)     ;
(PID.TID 0000.0001) PTRACERS_EvPrRn =/* tracer conc. in Evap. & Rain */
(PID.TID 0000.0001)                 1.234567000000000E+05
(PID.TID 0000.0001)     ;
(PID.TID 0000.0001)  -----------------------------------
(PID.TID 0000.0001)  tracer number :    4
(PID.TID 0000.0001) PTRACERS_names = /* Tracer short name */
(PID.TID 0000.0001)               'DOP'
(PID.TID 0000.0001)     ;
(PID.TID 0000.0001) PTRACERS_long_names = /* Tracer long name */
(PID.TID 0000.0001)               'Dissolved Organic Phosphorus (DOP) [mol P/m^3]'
(PID.TID 0000.0001)     ;
(PID.TID 0000.0001) PTRACERS_ioLabel = /* tracer IO Label */
(PID.TID 0000.0001)               '04'
(PID.TID 0000.0001)     ;
(PID.TID 0000.0001) PTRACERS_advScheme = /* Advection Scheme */
(PID.TID 0000.0001)                      77
(PID.TID 0000.0001)     ;
(PID.TID 0000.0001) PTRACERS_SOM_Advection = /* tracer uses SOM advection scheme */
(PID.TID 0000.0001)                   F
(PID.TID 0000.0001)     ;
(PID.TID 0000.0001) PTRACERS_ImplVertAdv = /* implicit vert. advection flag */
(PID.TID 0000.0001)                   F
(PID.TID 0000.0001)     ;
(PID.TID 0000.0001) PTRACERS_MultiDimAdv = /* tracer uses Multi-Dim advection */
(PID.TID 0000.0001)                   T
(PID.TID 0000.0001)     ;
(PID.TID 0000.0001) PTRACERS_AdamsBashGtr = /* apply AB on tracer tendency */
(PID.TID 0000.0001)                   F
(PID.TID 0000.0001)     ;
(PID.TID 0000.0001) PTRACERS_AdamsBash_Tr = /* apply AB on passive tracer */
(PID.TID 0000.0001)                   F
(PID.TID 0000.0001)     ;
(PID.TID 0000.0001) PTRACERS_diffKh = /* Laplacian Diffusivity */
(PID.TID 0000.0001)                 0.000000000000000E+00
(PID.TID 0000.0001)     ;
(PID.TID 0000.0001) PTRACERS_diffK4 = /* Biharmonic Diffusivity */
(PID.TID 0000.0001)                 0.000000000000000E+00
(PID.TID 0000.0001)     ;
(PID.TID 0000.0001) PTRACERS_diffKrNr = /* Vertical Diffusivity */
(PID.TID 0000.0001)    15 @  3.000000000000000E-05              /* K =  1: 15 */
(PID.TID 0000.0001)     ;
(PID.TID 0000.0001) PTRACERS_useGMRedi = /* apply GM-Redi */
(PID.TID 0000.0001)                   T
(PID.TID 0000.0001)     ;
(PID.TID 0000.0001) PTRACERS_useDWNSLP = /* apply DOWN-SLOPE Flow */
(PID.TID 0000.0001)                   F
(PID.TID 0000.0001)     ;
(PID.TID 0000.0001) PTRACERS_useKPP = /* apply KPP scheme */
(PID.TID 0000.0001)                   F
(PID.TID 0000.0001)     ;
(PID.TID 0000.0001) PTRACERS_ref = /* Reference vertical profile */
(PID.TID 0000.0001)    15 @  0.000000000000000E+00              /* K =  1: 15 */
(PID.TID 0000.0001)     ;
(PID.TID 0000.0001) PTRACERS_EvPrRn =/* tracer conc. in Evap. & Rain */
(PID.TID 0000.0001)                 1.234567000000000E+05
(PID.TID 0000.0001)     ;
(PID.TID 0000.0001)  -----------------------------------
(PID.TID 0000.0001)  tracer number :    5
(PID.TID 0000.0001) PTRACERS_names = /* Tracer short name */
(PID.TID 0000.0001)               'O2'
(PID.TID 0000.0001)     ;
(PID.TID 0000.0001) PTRACERS_long_names = /* Tracer long name */
(PID.TID 0000.0001)               'Dissolved Oxygen (O2) [mol O/m^3]'
(PID.TID 0000.0001)     ;
(PID.TID 0000.0001) PTRACERS_ioLabel = /* tracer IO Label */
(PID.TID 0000.0001)               '05'
(PID.TID 0000.0001)     ;
(PID.TID 0000.0001) PTRACERS_advScheme = /* Advection Scheme */
(PID.TID 0000.0001)                      77
(PID.TID 0000.0001)     ;
(PID.TID 0000.0001) PTRACERS_SOM_Advection = /* tracer uses SOM advection scheme */
(PID.TID 0000.0001)                   F
(PID.TID 0000.0001)     ;
(PID.TID 0000.0001) PTRACERS_ImplVertAdv = /* implicit vert. advection flag */
(PID.TID 0000.0001)                   F
(PID.TID 0000.0001)     ;
(PID.TID 0000.0001) PTRACERS_MultiDimAdv = /* tracer uses Multi-Dim advection */
(PID.TID 0000.0001)                   T
(PID.TID 0000.0001)     ;
(PID.TID 0000.0001) PTRACERS_AdamsBashGtr = /* apply AB on tracer tendency */
(PID.TID 0000.0001)                   F
(PID.TID 0000.0001)     ;
(PID.TID 0000.0001) PTRACERS_AdamsBash_Tr = /* apply AB on passive tracer */
(PID.TID 0000.0001)                   F
(PID.TID 0000.0001)     ;
(PID.TID 0000.0001) PTRACERS_diffKh = /* Laplacian Diffusivity */
(PID.TID 0000.0001)                 0.000000000000000E+00
(PID.TID 0000.0001)     ;
(PID.TID 0000.0001) PTRACERS_diffK4 = /* Biharmonic Diffusivity */
(PID.TID 0000.0001)                 0.000000000000000E+00
(PID.TID 0000.0001)     ;
(PID.TID 0000.0001) PTRACERS_diffKrNr = /* Vertical Diffusivity */
(PID.TID 0000.0001)    15 @  3.000000000000000E-05              /* K =  1: 15 */
(PID.TID 0000.0001)     ;
(PID.TID 0000.0001) PTRACERS_useGMRedi = /* apply GM-Redi */
(PID.TID 0000.0001)                   T
(PID.TID 0000.0001)     ;
(PID.TID 0000.0001) PTRACERS_useDWNSLP = /* apply DOWN-SLOPE Flow */
(PID.TID 0000.0001)                   F
(PID.TID 0000.0001)     ;
(PID.TID 0000.0001) PTRACERS_useKPP = /* apply KPP scheme */
(PID.TID 0000.0001)                   F
(PID.TID 0000.0001)     ;
(PID.TID 0000.0001) PTRACERS_ref = /* Reference vertical profile */
(PID.TID 0000.0001)                 2.457000000000000E-01,      /* K =  1 */
(PID.TID 0000.0001)                 2.336000000000000E-01,      /* K =  2 */
(PID.TID 0000.0001)                 1.975000000000000E-01,      /* K =  3 */
(PID.TID 0000.0001)                 1.729000000000000E-01,      /* K =  4 */
(PID.TID 0000.0001)                 1.591000000000000E-01,      /* K =  5 */
(PID.TID 0000.0001)                 1.503000000000000E-01,      /* K =  6 */
(PID.TID 0000.0001)                 1.424000000000000E-01,      /* K =  7 */
(PID.TID 0000.0001)                 1.445000000000000E-01,      /* K =  8 */
(PID.TID 0000.0001)                 1.549000000000000E-01,      /* K =  9 */
(PID.TID 0000.0001)                 1.661000000000000E-01,      /* K = 10 */
(PID.TID 0000.0001)                 1.774000000000000E-01,      /* K = 11 */
(PID.TID 0000.0001)                 1.863000000000000E-01,      /* K = 12 */
(PID.TID 0000.0001)                 1.925000000000000E-01,      /* K = 13 */
(PID.TID 0000.0001)                 2.021000000000000E-01,      /* K = 14 */
(PID.TID 0000.0001)                 2.051000000000000E-01       /* K = 15 */
(PID.TID 0000.0001)     ;
(PID.TID 0000.0001) PTRACERS_EvPrRn =/* tracer conc. in Evap. & Rain */
(PID.TID 0000.0001)                 1.234567000000000E+05
(PID.TID 0000.0001)     ;
(PID.TID 0000.0001)  -----------------------------------
(PID.TID 0000.0001) GCHEM_CHECK: #define ALLOW_GCHEM
(PID.TID 0000.0001) GAD_CHECK: #define ALLOW_GENERIC_ADVDIFF
(PID.TID 0000.0001) // =======================================================
(PID.TID 0000.0001) // Check Model config. (CONFIG_CHECK):
(PID.TID 0000.0001) // CONFIG_CHECK : Normal End
(PID.TID 0000.0001) // =======================================================
(PID.TID 0000.0001) 
(PID.TID 0000.0001)  MDS_READ_FIELD: opening global file: U_ini.bin
(PID.TID 0000.0001)  MDS_READ_FIELD: opening global file: V_ini.bin
(PID.TID 0000.0001)  MDS_READ_FIELD: opening global file: T_ini.bin
(PID.TID 0000.0001)  MDS_READ_FIELD: opening global file: S_ini.bin
(PID.TID 0000.0001)  MDS_READ_FIELD: opening global file: Eta_ini.bin
(PID.TID 0000.0001) Start initial hydrostatic pressure computation
(PID.TID 0000.0001) Pressure is predetermined for buoyancyRelation OCEANIC
(PID.TID 0000.0001) 
(PID.TID 0000.0001)  MDS_READ_FIELD: opening global file: tren_taux_box.bin
(PID.TID 0000.0001)  MDS_READ_FIELD: opening global file: tren_tauy_box.bin
(PID.TID 0000.0001)  MDS_READ_FIELD: opening global file: shi_qnet_box.bin
(PID.TID 0000.0001)  MDS_READ_FIELD: opening global file: shi_empmr_year_box.bin
(PID.TID 0000.0001)  MDS_READ_FIELD: opening global file: lev_monthly_temp_box.bin
(PID.TID 0000.0001)  MDS_READ_FIELD: opening global file: lev_monthly_salt_box.bin
(PID.TID 0000.0001)  write diagnostics summary to file ioUnit:      6
Iter.Nb:         0 ; Time(s):  0.0000000000000E+00
------------------------------------------------------------------------
2D/3D diagnostics: Number of lists:     3
------------------------------------------------------------------------
listId=    1 ; file name: surfDiag
 nFlds, nActive,       freq     &     phase        , nLev               
   10  |   10  |     -3600.000000         0.000000 |   1
 levels:   1
 diag# | name   |   ipt  |  iMate | kLev|   count |   mate.C|           
    23 |ETAN    |      1 |      0 |   1 |       0 |
    24 |ETANSQ  |      2 |      0 |   1 |       0 |
    25 |DETADT2 |      3 |      0 |   1 |       0 |
    73 |PHIBOT  |      4 |      0 |   1 |       0 |
    74 |PHIBOTSQ|      5 |      0 |   1 |       0 |
   278 |DICTFLX |      6 |      0 |   1 |       0 |
   279 |DICOFLX |      7 |      0 |   1 |       0 |
   280 |DICCFLX |      8 |      0 |   1 |       0 |
   281 |DICPCO2 |      9 |      0 |   1 |       0 |
   282 |DICPHAV |     10 |      0 |   1 |       0 |
------------------------------------------------------------------------
listId=    2 ; file name: dynDiag
 nFlds, nActive,       freq     &     phase        , nLev               
    9  |    9  |      3600.000000       900.000000 |  15
 levels:   1   2   3   4   5   6   7   8   9  10  11  12  13  14  15
 diag# | name   |   ipt  |  iMate | kLev|   count |   mate.C|           
    46 |VVELMASS|     11 |     26 |  15 |       0 |       0 |
    45 |UVELMASS|     26 |     11 |  15 |       0 |       0 |
    26 |THETA   |     41 |      0 |  15 |       0 |
    27 |SALT    |     56 |      0 |  15 |       0 |
   201 |GM_PsiX |     71 |     86 |  15 |       0 |       0 |
   202 |GM_PsiY |     86 |     71 |  15 |       0 |       0 |
    48 |PhiVEL  |    -26 |     11 |  15 |       0 |       0 |
    49 |PsiVEL  |    -26 |     11 |  15 |       0 |       0 |
    78 |CONVADJ |    101 |      0 |  15 |       0 |
------------------------------------------------------------------------
listId=    3 ; file name: oceFWflx
 nFlds, nActive,       freq     &     phase        , nLev               
    1  |    1  |      3600.000000       900.000000 |   1
 levels:   1
 diag# | name   |   ipt  |  iMate | kLev|   count |   mate.C|           
    83 |oceFWflx|    116 |      0 |   1 |       0 |
------------------------------------------------------------------------
Global & Regional Statistics diagnostics: Number of lists:     1
------------------------------------------------------------------------
listId=   1 ; file name: dynStDiag
 nFlds, nActive,       freq     &     phase        |                    
   15  |   15  |    432000.000000         0.000000 |
 Regions:   0
 diag# | name   |   ipt  |  iMate |    Volume   |   mate-Vol. |         
    23 |ETAN    |      1 |      0 | 0.00000E+00 |
    25 |DETADT2 |      2 |      0 | 0.00000E+00 |
    26 |THETA   |      3 |      0 | 0.00000E+00 |
    27 |SALT    |     18 |      0 | 0.00000E+00 |
    78 |CONVADJ |     33 |      0 | 0.00000E+00 |
    30 |UVEL    |     48 |      0 | 0.00000E+00 |
    31 |VVEL    |     63 |      0 | 0.00000E+00 |
    32 |WVEL    |     78 |      0 | 0.00000E+00 |
   201 |GM_PsiX |     93 |      0 | 0.00000E+00 |
   202 |GM_PsiY |    108 |      0 | 0.00000E+00 |
   210 |TRAC01  |    123 |      0 | 0.00000E+00 |
   223 |TRAC02  |    138 |      0 | 0.00000E+00 |
   236 |TRAC03  |    153 |      0 | 0.00000E+00 |
   249 |TRAC04  |    168 |      0 | 0.00000E+00 |
   262 |TRAC05  |    183 |      0 | 0.00000E+00 |
------------------------------------------------------------------------
(PID.TID 0000.0001)  MDS_READ_FIELD: opening global file: Trac01_ini.bin
(PID.TID 0000.0001)  MDS_READ_FIELD: opening global file: Trac02_ini.bin
(PID.TID 0000.0001)  MDS_READ_FIELD: opening global file: Trac03_ini.bin
(PID.TID 0000.0001)  MDS_READ_FIELD: opening global file: Trac04_ini.bin
(PID.TID 0000.0001)  MDS_READ_FIELD: opening global file: Trac05_ini.bin
 DIC_SURFFORCING_INIT, it=         0 : Reading new data, i0,i1=   12    1
(PID.TID 0000.0001)  MDS_READ_FIELD: opening global file: sillev1_box.bin
(PID.TID 0000.0001)  MDS_READ_FIELD: opening global file: sillev1_box.bin
 QQ: pCO2 approximation method
 QQ first guess pH   8.16371337888753        7.14314031600952     
   34.1267776489258        2.06063580513000       9.855302050709724E-004
  4.030982730910182E-003   2.27583050727844     
 QQ: pCO2 approximation method
 QQ first guess pH   8.15467590366908        3.40606427192688     
   34.0147705078125        2.11267447471619       1.396961743012071E-003
  1.108533516526222E-002   2.29718017578125     
 QQ: pCO2 approximation method
 QQ first guess pH   8.15826135709889       0.995348811149597     
   33.8356666564941        2.14585614204407       1.575522474013269E-003
  4.386645741760731E-002   2.31558108329773     
 QQ: pCO2 approximation method
 QQ first guess pH   8.12444849929742        20.3869934082031     
   35.0049781799316        1.96063196659088       1.244193263119087E-004
  2.270880155265331E-003   2.27022027969360     
 QQ: pCO2 approximation method
 QQ first guess pH   8.16773099144251        23.3523979187012     
   36.3359870910645        2.01398515701294       1.060497888829559E-004
  2.860252279788256E-003   2.40574669837952     
 QQ: pCO2 approximation method
 QQ first guess pH   8.13397709979703        21.5114173889160     
   36.0768318176270        2.02781128883362       2.150654763681814E-004
  1.358488341793418E-003   2.37246990203857     
 OBCS_FIELDS_LOAD,         0 : iP,iLd,i0,i1=   12    0   12    1 ; Wght=  0.5000000000  0.5000000000
 OBCS_FIELDS_LOAD, it=         0 : Reading new data, i0,i1=   12    1 (prev=   12    0 )
(PID.TID 0000.0001)  MDS_READ_SEC_YZ: opening global file: U_obE.bin
(PID.TID 0000.0001)  MDS_READ_SEC_YZ: opening global file: U_obE.bin
(PID.TID 0000.0001)  MDS_READ_SEC_YZ: opening global file: V_obE.bin
(PID.TID 0000.0001)  MDS_READ_SEC_YZ: opening global file: V_obE.bin
(PID.TID 0000.0001)  MDS_READ_SEC_YZ: opening global file: T_obE.bin
(PID.TID 0000.0001)  MDS_READ_SEC_YZ: opening global file: T_obE.bin
(PID.TID 0000.0001)  MDS_READ_SEC_YZ: opening global file: S_obE.bin
(PID.TID 0000.0001)  MDS_READ_SEC_YZ: opening global file: S_obE.bin
(PID.TID 0000.0001)  MDS_READ_SEC_YZ: opening global file: U_obW.bin
(PID.TID 0000.0001)  MDS_READ_SEC_YZ: opening global file: U_obW.bin
(PID.TID 0000.0001)  MDS_READ_SEC_YZ: opening global file: V_obW.bin
(PID.TID 0000.0001)  MDS_READ_SEC_YZ: opening global file: V_obW.bin
(PID.TID 0000.0001)  MDS_READ_SEC_YZ: opening global file: T_obW.bin
(PID.TID 0000.0001)  MDS_READ_SEC_YZ: opening global file: T_obW.bin
(PID.TID 0000.0001)  MDS_READ_SEC_YZ: opening global file: S_obW.bin
(PID.TID 0000.0001)  MDS_READ_SEC_YZ: opening global file: S_obW.bin
(PID.TID 0000.0001)  MDS_READ_SEC_XZ: opening global file: U_obN.bin
(PID.TID 0000.0001)  MDS_READ_SEC_XZ: opening global file: U_obN.bin
(PID.TID 0000.0001)  MDS_READ_SEC_XZ: opening global file: V_obN.bin
(PID.TID 0000.0001)  MDS_READ_SEC_XZ: opening global file: V_obN.bin
(PID.TID 0000.0001)  MDS_READ_SEC_XZ: opening global file: T_obN.bin
(PID.TID 0000.0001)  MDS_READ_SEC_XZ: opening global file: T_obN.bin
(PID.TID 0000.0001)  MDS_READ_SEC_XZ: opening global file: S_obN.bin
(PID.TID 0000.0001)  MDS_READ_SEC_XZ: opening global file: S_obN.bin
(PID.TID 0000.0001)  MDS_READ_SEC_YZ: opening global file: Trac01_obE.bin
(PID.TID 0000.0001)  MDS_READ_SEC_YZ: opening global file: Trac01_obE.bin
(PID.TID 0000.0001)  MDS_READ_SEC_YZ: opening global file: Trac01_obW.bin
(PID.TID 0000.0001)  MDS_READ_SEC_YZ: opening global file: Trac01_obW.bin
(PID.TID 0000.0001)  MDS_READ_SEC_XZ: opening global file: Trac01_obN.bin
(PID.TID 0000.0001)  MDS_READ_SEC_XZ: opening global file: Trac01_obN.bin
(PID.TID 0000.0001)  MDS_READ_SEC_YZ: opening global file: Trac02_obE.bin
(PID.TID 0000.0001)  MDS_READ_SEC_YZ: opening global file: Trac02_obE.bin
(PID.TID 0000.0001)  MDS_READ_SEC_YZ: opening global file: Trac02_obW.bin
(PID.TID 0000.0001)  MDS_READ_SEC_YZ: opening global file: Trac02_obW.bin
(PID.TID 0000.0001)  MDS_READ_SEC_XZ: opening global file: Trac02_obN.bin
(PID.TID 0000.0001)  MDS_READ_SEC_XZ: opening global file: Trac02_obN.bin
(PID.TID 0000.0001)  MDS_READ_SEC_YZ: opening global file: Trac03_obE.bin
(PID.TID 0000.0001)  MDS_READ_SEC_YZ: opening global file: Trac03_obE.bin
(PID.TID 0000.0001)  MDS_READ_SEC_YZ: opening global file: Trac03_obW.bin
(PID.TID 0000.0001)  MDS_READ_SEC_YZ: opening global file: Trac03_obW.bin
(PID.TID 0000.0001)  MDS_READ_SEC_XZ: opening global file: Trac03_obN.bin
(PID.TID 0000.0001)  MDS_READ_SEC_XZ: opening global file: Trac03_obN.bin
(PID.TID 0000.0001)  MDS_READ_SEC_YZ: opening global file: Trac04_obE.bin
(PID.TID 0000.0001)  MDS_READ_SEC_YZ: opening global file: Trac04_obE.bin
(PID.TID 0000.0001)  MDS_READ_SEC_YZ: opening global file: Trac04_obW.bin
(PID.TID 0000.0001)  MDS_READ_SEC_YZ: opening global file: Trac04_obW.bin
(PID.TID 0000.0001)  MDS_READ_SEC_XZ: opening global file: Trac04_obN.bin
(PID.TID 0000.0001)  MDS_READ_SEC_XZ: opening global file: Trac04_obN.bin
(PID.TID 0000.0001)  MDS_READ_SEC_YZ: opening global file: Trac05_obE.bin
(PID.TID 0000.0001)  MDS_READ_SEC_YZ: opening global file: Trac05_obE.bin
(PID.TID 0000.0001)  MDS_READ_SEC_YZ: opening global file: Trac05_obW.bin
(PID.TID 0000.0001)  MDS_READ_SEC_YZ: opening global file: Trac05_obW.bin
(PID.TID 0000.0001)  MDS_READ_SEC_XZ: opening global file: Trac05_obN.bin
(PID.TID 0000.0001)  MDS_READ_SEC_XZ: opening global file: Trac05_obN.bin
(PID.TID 0000.0001) // =======================================================
(PID.TID 0000.0001) // Model current state
(PID.TID 0000.0001) // =======================================================
(PID.TID 0000.0001) 
(PID.TID 0000.0001) // =======================================================
(PID.TID 0000.0001) // Begin MONITOR dynamic field statistics
(PID.TID 0000.0001) // =======================================================
(PID.TID 0000.0001) %MON time_tsnumber                =                     0
(PID.TID 0000.0001) %MON time_secondsf                =   0.0000000000000E+00
(PID.TID 0000.0001) %MON dynstat_eta_max              =   4.2498448491096E-01
(PID.TID 0000.0001) %MON dynstat_eta_min              =  -1.4817472696304E+00
(PID.TID 0000.0001) %MON dynstat_eta_mean             =  -5.1768973270635E-01
(PID.TID 0000.0001) %MON dynstat_eta_sd               =   5.9968952443660E-01
(PID.TID 0000.0001) %MON dynstat_eta_del2             =   2.3532016988898E-03
(PID.TID 0000.0001) %MON dynstat_uvel_max             =   1.3023830950260E-01
(PID.TID 0000.0001) %MON dynstat_uvel_min             =  -6.0768067836761E-02
(PID.TID 0000.0001) %MON dynstat_uvel_mean            =   7.3493858379116E-03
(PID.TID 0000.0001) %MON dynstat_uvel_sd              =   1.4643824433314E-02
(PID.TID 0000.0001) %MON dynstat_uvel_del2            =   1.6249141681668E-04
(PID.TID 0000.0001) %MON dynstat_vvel_max             =   1.2960743904114E-01
(PID.TID 0000.0001) %MON dynstat_vvel_min             =  -8.8518343865871E-02
(PID.TID 0000.0001) %MON dynstat_vvel_mean            =   8.9127213327288E-04
(PID.TID 0000.0001) %MON dynstat_vvel_sd              =   8.4376087770051E-03
(PID.TID 0000.0001) %MON dynstat_vvel_del2            =   1.0650506343562E-04
(PID.TID 0000.0001) %MON dynstat_wvel_max             =   5.5220275294497E-05
(PID.TID 0000.0001) %MON dynstat_wvel_min             =  -1.4137995947489E-04
(PID.TID 0000.0001) %MON dynstat_wvel_mean            =  -2.4324096431404E-07
(PID.TID 0000.0001) %MON dynstat_wvel_sd              =   5.5064315434168E-06
(PID.TID 0000.0001) %MON dynstat_wvel_del2            =   1.4504545477429E-07
(PID.TID 0000.0001) %MON dynstat_theta_max            =   2.4157361984253E+01
(PID.TID 0000.0001) %MON dynstat_theta_min            =  -2.8958356380463E+00
(PID.TID 0000.0001) %MON dynstat_theta_mean           =   2.3216137302711E+00
(PID.TID 0000.0001) %MON dynstat_theta_sd             =   3.2103641662143E+00
(PID.TID 0000.0001) %MON dynstat_theta_del2           =   6.6465388359911E-03
(PID.TID 0000.0001) %MON dynstat_salt_max             =   3.6600784301758E+01
(PID.TID 0000.0001) %MON dynstat_salt_min             =   3.3084754943848E+01
(PID.TID 0000.0001) %MON dynstat_salt_mean            =   3.4483933613549E+01
(PID.TID 0000.0001) %MON dynstat_salt_sd              =   1.9644712446743E-01
(PID.TID 0000.0001) %MON dynstat_salt_del2            =   1.1588922083609E-03
(PID.TID 0000.0001) %MON forcing_qnet_max             =   6.9361846923828E+01
(PID.TID 0000.0001) %MON forcing_qnet_min             =  -2.0417861938477E+02
(PID.TID 0000.0001) %MON forcing_qnet_mean            =  -1.1295642419045E+02
(PID.TID 0000.0001) %MON forcing_qnet_sd              =   4.1815497434578E+01
(PID.TID 0000.0001) %MON forcing_qnet_del2            =   8.8869422460177E-01
(PID.TID 0000.0001) %MON forcing_qsw_max              =   0.0000000000000E+00
(PID.TID 0000.0001) %MON forcing_qsw_min              =   0.0000000000000E+00
(PID.TID 0000.0001) %MON forcing_qsw_mean             =   0.0000000000000E+00
(PID.TID 0000.0001) %MON forcing_qsw_sd               =   0.0000000000000E+00
(PID.TID 0000.0001) %MON forcing_qsw_del2             =   0.0000000000000E+00
(PID.TID 0000.0001) %MON forcing_empmr_max            =   2.5141471127199E-05
(PID.TID 0000.0001) %MON forcing_empmr_min            =  -3.9761445691511E-05
(PID.TID 0000.0001) %MON forcing_empmr_mean           =  -9.3236499820974E-06
(PID.TID 0000.0001) %MON forcing_empmr_sd             =   1.0249687273683E-05
(PID.TID 0000.0001) %MON forcing_empmr_del2           =   9.8755541425843E-08
(PID.TID 0000.0001) %MON forcing_fu_max               =   2.1824374794960E-01
(PID.TID 0000.0001) %MON forcing_fu_min               =  -1.0302186757326E-01
(PID.TID 0000.0001) %MON forcing_fu_mean              =   7.3083621898039E-02
(PID.TID 0000.0001) %MON forcing_fu_sd                =   7.2594531176829E-02
(PID.TID 0000.0001) %MON forcing_fu_del2              =   5.9615425353979E-04
(PID.TID 0000.0001) %MON forcing_fv_max               =   1.4191913604736E-01
(PID.TID 0000.0001) %MON forcing_fv_min               =  -7.7472656965256E-02
(PID.TID 0000.0001) %MON forcing_fv_mean              =  -1.7821404000724E-02
(PID.TID 0000.0001) %MON forcing_fv_sd                =   3.3449841576786E-02
(PID.TID 0000.0001) %MON forcing_fv_del2              =   3.7447536985508E-04
(PID.TID 0000.0001) %MON trAdv_CFL_u_max              =   0.0000000000000E+00
(PID.TID 0000.0001) %MON trAdv_CFL_v_max              =   0.0000000000000E+00
(PID.TID 0000.0001) %MON trAdv_CFL_w_max              =   0.0000000000000E+00
(PID.TID 0000.0001) %MON advcfl_uvel_max              =   7.0068057693790E-04
(PID.TID 0000.0001) %MON advcfl_vvel_max              =   3.7304661855228E-04
(PID.TID 0000.0001) %MON advcfl_wvel_max              =   7.0119664398602E-04
(PID.TID 0000.0001) %MON advcfl_W_hf_max              =   3.7424106919825E-04
(PID.TID 0000.0001) %MON pe_b_mean                    =   8.4564277375069E-04
(PID.TID 0000.0001) %MON ke_max                       =   9.2757393409125E-03
(PID.TID 0000.0001) %MON ke_mean                      =   1.6130429888475E-04
(PID.TID 0000.0001) %MON ke_vol                       =   1.2769337095763E+17
(PID.TID 0000.0001) %MON vort_r_min                   =  -4.7830461303030E-07
(PID.TID 0000.0001) %MON vort_r_max                   =   7.0582698239818E-07
(PID.TID 0000.0001) %MON vort_a_mean                  =  -1.0457492699542E-04
(PID.TID 0000.0001) %MON vort_a_sd                    =   2.1292568575566E-05
(PID.TID 0000.0001) %MON vort_p_mean                  =  -1.2574624497018E-04
(PID.TID 0000.0001) %MON vort_p_sd                    =   1.1183795518383E-04
(PID.TID 0000.0001) %MON surfExpan_theta_mean         =  -1.4505528465063E-07
(PID.TID 0000.0001) %MON surfExpan_salt_mean          =   7.1872208131480E-08
(PID.TID 0000.0001) // =======================================================
(PID.TID 0000.0001) // End MONITOR dynamic field statistics
(PID.TID 0000.0001) // =======================================================
(PID.TID 0000.0001) // =======================================================
(PID.TID 0000.0001) // Begin OBCS MONITOR field statistics
(PID.TID 0000.0001) // =======================================================
(PID.TID 0000.0001) %MON obc_E_uVel_max               =   8.4231816232204E-02
(PID.TID 0000.0001) %MON obc_E_uVel_min               =  -6.0768067836761E-02
(PID.TID 0000.0001) %MON obc_E_uVel_mean              =   7.3664911249156E-03
(PID.TID 0000.0001) %MON obc_E_uVel_sd                =   1.4300273749965E-02
(PID.TID 0000.0001) %MON obc_E_uVel_Int               =   1.2629560767914E+08
(PID.TID 0000.0001) %MON obc_W_uVel_max               =   5.9702914208174E-02
(PID.TID 0000.0001) %MON obc_W_uVel_min               =  -2.5726319290698E-02
(PID.TID 0000.0001) %MON obc_W_uVel_mean              =   7.0236617289703E-03
(PID.TID 0000.0001) %MON obc_W_uVel_sd                =   1.1103839461495E-02
(PID.TID 0000.0001) %MON obc_W_uVel_Int               =   1.3126718559515E+08
(PID.TID 0000.0001) %MON obc_N_vVel_max               =   4.7468712553382E-02
(PID.TID 0000.0001) %MON obc_N_vVel_min               =  -7.0454828441143E-02
(PID.TID 0000.0001) %MON obc_N_vVel_mean              =   1.6522467327141E-04
(PID.TID 0000.0001) %MON obc_N_vVel_sd                =   6.4416742406190E-03
(PID.TID 0000.0001) %MON obc_N_vVel_Int               =   4.8301529307681E+06
(PID.TID 0000.0001) %MON obc_E_theta_max              =   1.9184095382690E+01
(PID.TID 0000.0001) %MON obc_E_theta_min              =  -1.6429638266563E+00
(PID.TID 0000.0001) %MON obc_E_theta_mean             =   1.9094777718074E+00
(PID.TID 0000.0001) %MON obc_E_theta_sd               =   2.9652256041640E+00
(PID.TID 0000.0001) %MON obc_W_theta_max              =   2.1404630661011E+01
(PID.TID 0000.0001) %MON obc_W_theta_min              =  -1.4417628645897E+00
(PID.TID 0000.0001) %MON obc_W_theta_mean             =   2.4654016052560E+00
(PID.TID 0000.0001) %MON obc_W_theta_sd               =   2.9592378831378E+00
(PID.TID 0000.0001) %MON obc_N_theta_max              =   2.3972635269165E+01
(PID.TID 0000.0001) %MON obc_N_theta_min              =  -6.3042351603508E-01
(PID.TID 0000.0001) %MON obc_N_theta_mean             =   4.8710207613799E+00
(PID.TID 0000.0001) %MON obc_N_theta_sd               =   4.7009472474846E+00
(PID.TID 0000.0001) // =======================================================
(PID.TID 0000.0001) // End OBCS MONITOR field statistics
(PID.TID 0000.0001) // =======================================================
(PID.TID 0000.0001) // =======================================================
(PID.TID 0000.0001) // Begin MONITOR ptracer field statistics
(PID.TID 0000.0001) // =======================================================
(PID.TID 0000.0001) %MON trcstat_ptracer01_max        =   2.3591387271881E+00
(PID.TID 0000.0001) %MON trcstat_ptracer01_min        =   1.9367703199387E+00
(PID.TID 0000.0001) %MON trcstat_ptracer01_mean       =   2.2425301046135E+00
(PID.TID 0000.0001) %MON trcstat_ptracer01_sd         =   7.5981612504913E-02
(PID.TID 0000.0001) %MON trcstat_ptracer01_del2       =   1.0693771728119E-04
(PID.TID 0000.0001) %MON trcstat_ptracer02_max        =   2.4116826057434E+00
(PID.TID 0000.0001) %MON trcstat_ptracer02_min        =   2.1899123191833E+00
(PID.TID 0000.0001) %MON trcstat_ptracer02_mean       =   2.3520448323130E+00
(PID.TID 0000.0001) %MON trcstat_ptracer02_sd         =   3.5091243992577E-02
(PID.TID 0000.0001) %MON trcstat_ptracer02_del2       =   8.0636971566538E-05
(PID.TID 0000.0001) %MON trcstat_ptracer03_max        =   2.7654629666358E-03
(PID.TID 0000.0001) %MON trcstat_ptracer03_min        =   4.7440538764931E-05
(PID.TID 0000.0001) %MON trcstat_ptracer03_mean       =   2.0556800669777E-03
(PID.TID 0000.0001) %MON trcstat_ptracer03_sd         =   5.0322634216633E-04
(PID.TID 0000.0001) %MON trcstat_ptracer03_del2       =   6.7075508236597E-07
(PID.TID 0000.0001) %MON trcstat_ptracer04_max        =   2.5665847351775E-04
(PID.TID 0000.0001) %MON trcstat_ptracer04_min        =  -7.4560205121088E-07
(PID.TID 0000.0001) %MON trcstat_ptracer04_mean       =   6.2001614686786E-06
(PID.TID 0000.0001) %MON trcstat_ptracer04_sd         =   2.6096018939081E-05
(PID.TID 0000.0001) %MON trcstat_ptracer04_del2       =   1.3468378546213E-07
(PID.TID 0000.0001) %MON trcstat_ptracer05_max        =   3.8357657194138E-01
(PID.TID 0000.0001) %MON trcstat_ptracer05_min        =   8.2342259585857E-02
(PID.TID 0000.0001) %MON trcstat_ptracer05_mean       =   2.1413280166756E-01
(PID.TID 0000.0001) %MON trcstat_ptracer05_sd         =   4.3053560479973E-02
(PID.TID 0000.0001) %MON trcstat_ptracer05_del2       =   1.1918591217244E-04
(PID.TID 0000.0001) // =======================================================
(PID.TID 0000.0001) // End MONITOR ptracers field statistics
(PID.TID 0000.0001) // =======================================================
 EXTERNAL_FIELDS_LOAD,         0 : iP,iLd,i0,i1=   12    0   12    1 ; Wght=  0.5000000000  0.5000000000
 EXTERNAL_FIELDS_LOAD, it=         0 : Reading new data, i0,i1=   12    1 (prev=   12    0 )
(PID.TID 0000.0001)  MDS_READ_FIELD: opening global file: tren_taux_box.bin
(PID.TID 0000.0001)  MDS_READ_FIELD: opening global file: tren_taux_box.bin
(PID.TID 0000.0001)  MDS_READ_FIELD: opening global file: tren_tauy_box.bin
(PID.TID 0000.0001)  MDS_READ_FIELD: opening global file: tren_tauy_box.bin
(PID.TID 0000.0001)  MDS_READ_FIELD: opening global file: shi_qnet_box.bin
(PID.TID 0000.0001)  MDS_READ_FIELD: opening global file: shi_qnet_box.bin
(PID.TID 0000.0001)  MDS_READ_FIELD: opening global file: shi_empmr_year_box.bin
(PID.TID 0000.0001)  MDS_READ_FIELD: opening global file: shi_empmr_year_box.bin
(PID.TID 0000.0001)  MDS_READ_FIELD: opening global file: lev_monthly_temp_box.bin
(PID.TID 0000.0001)  MDS_READ_FIELD: opening global file: lev_monthly_temp_box.bin
(PID.TID 0000.0001)  MDS_READ_FIELD: opening global file: lev_monthly_salt_box.bin
(PID.TID 0000.0001)  MDS_READ_FIELD: opening global file: lev_monthly_salt_box.bin
 DIC_FIELDS_LOAD,         0 : iP,iLd,i0,i1=   12    0   12    1 ; Wght=  0.5000000000  0.5000000000
 DIC_FIELDS_LOAD, it=         0 : Reading new data, i0,i1=   12    1 (prev=   12    0 )
(PID.TID 0000.0001)  MDS_READ_FIELD: opening global file: tren_speed_box.bin
(PID.TID 0000.0001)  MDS_READ_FIELD: opening global file: tren_speed_box.bin
(PID.TID 0000.0001)  MDS_READ_FIELD: opening global file: sillev1_box.bin
(PID.TID 0000.0001)  MDS_READ_FIELD: opening global file: sillev1_box.bin
(PID.TID 0000.0001)  MDS_READ_FIELD: opening global file: fice_box.bin
(PID.TID 0000.0001)  MDS_READ_FIELD: opening global file: fice_box.bin
 OBCS_FIELDS_LOAD,         1 : iP,iLd,i0,i1=   12    1   12    1 ; Wght=  0.4996527778  0.5003472222
(PID.TID 0000.0001) SOLVE_FOR_PRESSURE: putPmEinXvector =    F
 cg2d: Sum(rhs),rhsMax =   2.32300267934012E+02  7.56786689644101E+00
(PID.TID 0000.0001)      cg2d_init_res =   3.15058491438360E-02
(PID.TID 0000.0001)      cg2d_iters(min,last) =      -1      21
(PID.TID 0000.0001)      cg2d_last_res =   5.09392746126920E-14
(PID.TID 0000.0001) // =======================================================
(PID.TID 0000.0001) // Begin MONITOR dynamic field statistics
(PID.TID 0000.0001) // =======================================================
(PID.TID 0000.0001) %MON time_tsnumber                =                     1
(PID.TID 0000.0001) %MON time_secondsf                =   9.0000000000000E+02
(PID.TID 0000.0001) %MON dynstat_eta_max              =   4.2691658086015E-01
(PID.TID 0000.0001) %MON dynstat_eta_min              =  -1.4817376960991E+00
(PID.TID 0000.0001) %MON dynstat_eta_mean             =  -5.1768610336238E-01
(PID.TID 0000.0001) %MON dynstat_eta_sd               =   5.9972137359303E-01
(PID.TID 0000.0001) %MON dynstat_eta_del2             =   2.3555056885550E-03
(PID.TID 0000.0001) %MON dynstat_uvel_max             =   1.3022309446959E-01
(PID.TID 0000.0001) %MON dynstat_uvel_min             =  -6.0766479947294E-02
(PID.TID 0000.0001) %MON dynstat_uvel_mean            =   7.3530476743896E-03
(PID.TID 0000.0001) %MON dynstat_uvel_sd              =   1.4640111485773E-02
(PID.TID 0000.0001) %MON dynstat_uvel_del2            =   1.6238872790947E-04
(PID.TID 0000.0001) %MON dynstat_vvel_max             =   1.2953450469088E-01
(PID.TID 0000.0001) %MON dynstat_vvel_min             =  -8.8562595131951E-02
(PID.TID 0000.0001) %MON dynstat_vvel_mean            =   8.9362478698107E-04
(PID.TID 0000.0001) %MON dynstat_vvel_sd              =   8.4339132958091E-03
(PID.TID 0000.0001) %MON dynstat_vvel_del2            =   1.0639917792200E-04
(PID.TID 0000.0001) %MON dynstat_wvel_max             =   5.5189462087405E-05
(PID.TID 0000.0001) %MON dynstat_wvel_min             =  -1.4133844975823E-04
(PID.TID 0000.0001) %MON dynstat_wvel_mean            =  -2.4324089014515E-07
(PID.TID 0000.0001) %MON dynstat_wvel_sd              =   5.4514072018314E-06
(PID.TID 0000.0001) %MON dynstat_wvel_del2            =   1.4082784874518E-07
(PID.TID 0000.0001) %MON dynstat_theta_max            =   2.4157754062199E+01
(PID.TID 0000.0001) %MON dynstat_theta_min            =  -2.8958380005789E+00
(PID.TID 0000.0001) %MON dynstat_theta_mean           =   2.3216204399484E+00
(PID.TID 0000.0001) %MON dynstat_theta_sd             =   3.2103827576714E+00
(PID.TID 0000.0001) %MON dynstat_theta_del2           =   6.6464757140547E-03
(PID.TID 0000.0001) %MON dynstat_salt_max             =   3.6600788458682E+01
(PID.TID 0000.0001) %MON dynstat_salt_min             =   3.3084731003998E+01
(PID.TID 0000.0001) %MON dynstat_salt_mean            =   3.4483933644082E+01
(PID.TID 0000.0001) %MON dynstat_salt_sd              =   1.9644735494740E-01
(PID.TID 0000.0001) %MON dynstat_salt_del2            =   1.1588796143289E-03
(PID.TID 0000.0001) %MON forcing_qnet_max             =   6.8294754028320E+01
(PID.TID 0000.0001) %MON forcing_qnet_min             =  -2.1320401000977E+02
(PID.TID 0000.0001) %MON forcing_qnet_mean            =  -1.2120328054684E+02
(PID.TID 0000.0001) %MON forcing_qnet_sd              =   4.4775932709347E+01
(PID.TID 0000.0001) %MON forcing_qnet_del2            =   8.3492965265813E-01
(PID.TID 0000.0001) %MON forcing_qsw_max              =   0.0000000000000E+00
(PID.TID 0000.0001) %MON forcing_qsw_min              =   0.0000000000000E+00
(PID.TID 0000.0001) %MON forcing_qsw_mean             =   0.0000000000000E+00
(PID.TID 0000.0001) %MON forcing_qsw_sd               =   0.0000000000000E+00
(PID.TID 0000.0001) %MON forcing_qsw_del2             =   0.0000000000000E+00
(PID.TID 0000.0001) %MON forcing_empmr_max            =   2.5141471127199E-05
(PID.TID 0000.0001) %MON forcing_empmr_min            =  -3.9761445691511E-05
(PID.TID 0000.0001) %MON forcing_empmr_mean           =  -9.3236499820974E-06
(PID.TID 0000.0001) %MON forcing_empmr_sd             =   1.0249687273683E-05
(PID.TID 0000.0001) %MON forcing_empmr_del2           =   9.8755541425843E-08
(PID.TID 0000.0001) %MON forcing_fu_max               =   2.1189042925835E-01
(PID.TID 0000.0001) %MON forcing_fu_min               =  -9.0532809495926E-02
(PID.TID 0000.0001) %MON forcing_fu_mean              =   7.6106089453040E-02
(PID.TID 0000.0001) %MON forcing_fu_sd                =   7.1216399468495E-02
(PID.TID 0000.0001) %MON forcing_fu_del2              =   5.5128220616824E-04
(PID.TID 0000.0001) %MON forcing_fv_max               =   1.5118104964495E-01
(PID.TID 0000.0001) %MON forcing_fv_min               =  -7.6193943619728E-02
(PID.TID 0000.0001) %MON forcing_fv_mean              =  -1.9592570688621E-02
(PID.TID 0000.0001) %MON forcing_fv_sd                =   3.3563926402948E-02
(PID.TID 0000.0001) %MON forcing_fv_del2              =   3.7626012825569E-04
(PID.TID 0000.0001) %MON trAdv_CFL_u_max              =   1.7015658909022E-03
(PID.TID 0000.0001) %MON trAdv_CFL_v_max              =   3.8516484886782E-04
(PID.TID 0000.0001) %MON trAdv_CFL_w_max              =   1.3092674555767E-03
(PID.TID 0000.0001) %MON advcfl_uvel_max              =   7.0059872023882E-04
(PID.TID 0000.0001) %MON advcfl_vvel_max              =   3.7283669300372E-04
(PID.TID 0000.0001) %MON advcfl_wvel_max              =   3.4850576652713E-04
(PID.TID 0000.0001) %MON advcfl_W_hf_max              =   3.7413119053648E-04
(PID.TID 0000.0001) %MON pe_b_mean                    =   8.4568918012774E-04
(PID.TID 0000.0001) %MON ke_max                       =   9.2658142043448E-03
(PID.TID 0000.0001) %MON ke_mean                      =   1.6124971996738E-04
(PID.TID 0000.0001) %MON ke_vol                       =   1.2769337095763E+17
(PID.TID 0000.0001) %MON vort_r_min                   =  -4.7808221184270E-07
(PID.TID 0000.0001) %MON vort_r_max                   =   7.0526111856995E-07
(PID.TID 0000.0001) %MON vort_a_mean                  =  -1.0457492698468E-04
(PID.TID 0000.0001) %MON vort_a_sd                    =   2.1292570087929E-05
(PID.TID 0000.0001) %MON vort_p_mean                  =  -1.2574624495728E-04
(PID.TID 0000.0001) %MON vort_p_sd                    =   1.1183795553792E-04
(PID.TID 0000.0001) %MON surfExpan_theta_mean         =  -1.1573826397119E-07
(PID.TID 0000.0001) %MON surfExpan_salt_mean          =   8.0237582237785E-08
(PID.TID 0000.0001) // =======================================================
(PID.TID 0000.0001) // End MONITOR dynamic field statistics
(PID.TID 0000.0001) // =======================================================
(PID.TID 0000.0001) // =======================================================
(PID.TID 0000.0001) // Begin OBCS MONITOR field statistics
(PID.TID 0000.0001) // =======================================================
(PID.TID 0000.0001) %MON obc_E_uVel_max               =   8.4229016386800E-02
(PID.TID 0000.0001) %MON obc_E_uVel_min               =  -6.0766479947294E-02
(PID.TID 0000.0001) %MON obc_E_uVel_mean              =   7.3664529431197E-03
(PID.TID 0000.0001) %MON obc_E_uVel_sd                =   1.4300286483412E-02
(PID.TID 0000.0001) %MON obc_E_uVel_Int               =   1.2629495306719E+08
(PID.TID 0000.0001) %MON obc_W_uVel_max               =   5.9703915009999E-02
(PID.TID 0000.0001) %MON obc_W_uVel_min               =  -2.5726368876510E-02
(PID.TID 0000.0001) %MON obc_W_uVel_mean              =   7.0235705958143E-03
(PID.TID 0000.0001) %MON obc_W_uVel_sd                =   1.1103921408350E-02
(PID.TID 0000.0001) %MON obc_W_uVel_Int               =   1.3126548238201E+08
(PID.TID 0000.0001) %MON obc_N_vVel_max               =   4.7467599862203E-02
(PID.TID 0000.0001) %MON obc_N_vVel_min               =  -7.0455903378833E-02
(PID.TID 0000.0001) %MON obc_N_vVel_mean              =   1.6518800244567E-04
(PID.TID 0000.0001) %MON obc_N_vVel_sd                =   6.4416451870545E-03
(PID.TID 0000.0001) %MON obc_N_vVel_Int               =   4.8290809014341E+06
(PID.TID 0000.0001) %MON obc_E_theta_max              =   1.9184542791049E+01
(PID.TID 0000.0001) %MON obc_E_theta_min              =  -1.6427835446679E+00
(PID.TID 0000.0001) %MON obc_E_theta_mean             =   1.9094775397758E+00
(PID.TID 0000.0001) %MON obc_E_theta_sd               =   2.9652354027470E+00
(PID.TID 0000.0001) %MON obc_W_theta_max              =   2.1405051309533E+01
(PID.TID 0000.0001) %MON obc_W_theta_min              =  -1.4417645774368E+00
(PID.TID 0000.0001) %MON obc_W_theta_mean             =   2.4654061310451E+00
(PID.TID 0000.0001) %MON obc_W_theta_sd               =   2.9592490974877E+00
(PID.TID 0000.0001) %MON obc_N_theta_max              =   2.3973070436054E+01
(PID.TID 0000.0001) %MON obc_N_theta_min              =  -6.3043398643947E-01
(PID.TID 0000.0001) %MON obc_N_theta_mean             =   4.8710251758110E+00
(PID.TID 0000.0001) %MON obc_N_theta_sd               =   4.7009655675089E+00
(PID.TID 0000.0001) // =======================================================
(PID.TID 0000.0001) // End OBCS MONITOR field statistics
(PID.TID 0000.0001) // =======================================================
(PID.TID 0000.0001) // =======================================================
(PID.TID 0000.0001) // Begin MONITOR ptracer field statistics
(PID.TID 0000.0001) // =======================================================
(PID.TID 0000.0001) %MON trcstat_ptracer01_max        =   2.3591387413424E+00
(PID.TID 0000.0001) %MON trcstat_ptracer01_min        =   1.9367699166576E+00
(PID.TID 0000.0001) %MON trcstat_ptracer01_mean       =   2.2425300765237E+00
(PID.TID 0000.0001) %MON trcstat_ptracer01_sd         =   7.5981679359282E-02
(PID.TID 0000.0001) %MON trcstat_ptracer01_del2       =   1.0693900840776E-04
(PID.TID 0000.0001) %MON trcstat_ptracer02_max        =   2.4116826101147E+00
(PID.TID 0000.0001) %MON trcstat_ptracer02_min        =   2.1899130212917E+00
(PID.TID 0000.0001) %MON trcstat_ptracer02_mean       =   2.3520448395279E+00
(PID.TID 0000.0001) %MON trcstat_ptracer02_sd         =   3.5091239492013E-02
(PID.TID 0000.0001) %MON trcstat_ptracer02_del2       =   8.0636760917277E-05
(PID.TID 0000.0001) %MON trcstat_ptracer03_max        =   2.7654630520305E-03
(PID.TID 0000.0001) %MON trcstat_ptracer03_min        =   4.7439595056704E-05
(PID.TID 0000.0001) %MON trcstat_ptracer03_mean       =   2.0556798690993E-03
(PID.TID 0000.0001) %MON trcstat_ptracer03_sd         =   5.0322668971338E-04
(PID.TID 0000.0001) %MON trcstat_ptracer03_del2       =   6.7077536251508E-07
(PID.TID 0000.0001) %MON trcstat_ptracer04_max        =   2.5666551292211E-04
(PID.TID 0000.0001) %MON trcstat_ptracer04_min        =  -7.4560218146066E-07
(PID.TID 0000.0001) %MON trcstat_ptracer04_mean       =   6.2003336174679E-06
(PID.TID 0000.0001) %MON trcstat_ptracer04_sd         =   2.6096852788859E-05
(PID.TID 0000.0001) %MON trcstat_ptracer04_del2       =   1.3471052453804E-07
(PID.TID 0000.0001) %MON trcstat_ptracer05_max        =   3.8357743476744E-01
(PID.TID 0000.0001) %MON trcstat_ptracer05_min        =   8.2343115433732E-02
(PID.TID 0000.0001) %MON trcstat_ptracer05_mean       =   2.1413276485913E-01
(PID.TID 0000.0001) %MON trcstat_ptracer05_sd         =   4.3053510967476E-02
(PID.TID 0000.0001) %MON trcstat_ptracer05_del2       =   1.1918775418577E-04
(PID.TID 0000.0001) // =======================================================
(PID.TID 0000.0001) // End MONITOR ptracers field statistics
(PID.TID 0000.0001) // =======================================================
 Computing Diagnostic #     23  ETAN         Counter:       1   Parms: SM      M1      
 Computing Diagnostic #     24  ETANSQ       Counter:       1   Parms: SM P    M1      
 Computing Diagnostic #     25  DETADT2      Counter:       1   Parms: SM      M1      
 Computing Diagnostic #     73  PHIBOT       Counter:       1   Parms: SM      M1      
 Computing Diagnostic #     74  PHIBOTSQ     Counter:       1   Parms: SM P    M1      
 Computing Diagnostic #    278  DICTFLX      Counter:       1   Parms: SM P    L1      
 Computing Diagnostic #    279  DICOFLX      Counter:       1   Parms: SM P    L1      
 Computing Diagnostic #    280  DICCFLX      Counter:       1   Parms: SM P    L1      
 Computing Diagnostic #    281  DICPCO2      Counter:       1   Parms: SM P    M1      
 Computing Diagnostic #    282  DICPHAV      Counter:       1   Parms: SM P    M1      
 Computing Diagnostic #     46  VVELMASS     Counter:       1   Parms: VVr     MR      
           Vector  Mate for  VVELMASS     Diagnostic #     45  UVELMASS exists 
 Computing Diagnostic #     45  UVELMASS     Counter:       1   Parms: UUr     MR      
           Vector  Mate for  UVELMASS     Diagnostic #     46  VVELMASS exists 
 Computing Diagnostic #     26  THETA        Counter:       1   Parms: SMR     MR      
 Computing Diagnostic #     27  SALT         Counter:       1   Parms: SMR     MR      
 Computing Diagnostic #    201  GM_PsiX      Counter:       1   Parms: UU      LR      
           Vector  Mate for  GM_PsiX      Diagnostic #    202  GM_PsiY  exists 
 Computing Diagnostic #    202  GM_PsiY      Counter:       1   Parms: VV      LR      
           Vector  Mate for  GM_PsiY      Diagnostic #    201  GM_PsiX  exists 
 Post-Processing Diag #     48  PhiVEL     Parms: SMR P   MR      
   from diag: UVELMASS (#    45) Cnt=       1 and diag: VVELMASS (#    46) Cnt=       1
 diag_cg2d (it=        1) a2dNorm,x2dNorm= 4.382025E-03 , 2.617873E+03 ; Criter= 1.00E-13
 diag_cg2d : k=   1 , it=   118   119 ; ini,min,last_Res= 4.6080088E+00 1.5182596E-13 9.0658848E-14
 diag_calc_psivel: bi,bj=   1   1 : npass,nPts=     1     154
 diag_calc_psivel:            is,js=   2   1 ; ix,jx=  15   1 ; iy,jy=   2  11
 diag_calc_psivel: bi,bj=   2   1 : npass,nPts=     1     165
 diag_calc_psivel:            is,js=   1   1 ; ix,jx=  15   1 ; iy,jy=   1  11
 diag_calc_psivel: bi,bj=   3   1 : npass,nPts=     1     154
 diag_calc_psivel:            is,js=   1   1 ; ix,jx=  14   1 ; iy,jy=   1  11
 diag_calc_psivel: bi,bj=   1   2 : npass,nPts=     1     140
 diag_calc_psivel:            is,js=   2   1 ; ix,jx=  15   1 ; iy,jy=   2  10
 diag_calc_psivel: bi,bj=   2   2 : npass,nPts=     1     150
 diag_calc_psivel:            is,js=   1   1 ; ix,jx=  15   1 ; iy,jy=   1  10
 diag_calc_psivel: bi,bj=   3   2 : npass,nPts=     1     140
 diag_calc_psivel:            is,js=   1   1 ; ix,jx=  14   1 ; iy,jy=   1  10
 diag_cg2d : k=   2 , it=   116   117 ; ini,min,last_Res= 3.4484455E+00 1.5869350E-13 9.0897361E-14
 diag_cg2d : k=   3 , it=   114   115 ; ini,min,last_Res= 1.9740070E+00 1.5547731E-13 9.7737367E-14
 diag_cg2d : k=   4 , it=   113   114 ; ini,min,last_Res= 2.1109274E+00 1.3215422E-13 7.0986538E-14
 diag_cg2d : k=   5 , it=   114   115 ; ini,min,last_Res= 2.7567312E+00 1.0136379E-13 5.0297785E-14
 diag_cg2d : k=   6 , it=   107   108 ; ini,min,last_Res= 1.9779122E+00 1.5584174E-13 9.1449695E-14
 diag_cg2d : k=   7 , it=   108   109 ; ini,min,last_Res= 2.4658354E+00 1.0768797E-13 5.9900702E-14
 diag_cg2d : k=   8 , it=   105   106 ; ini,min,last_Res= 2.0284577E+00 1.2111406E-13 7.8564855E-14
 diag_cg2d : k=   9 , it=   105   106 ; ini,min,last_Res= 2.1033710E+00 1.4581371E-13 8.1241102E-14
 diag_cg2d : k=  10 , it=   107   108 ; ini,min,last_Res= 1.9935677E+00 1.1323071E-13 6.7227634E-14
 diag_cg2d : k=  11 , it=   107   108 ; ini,min,last_Res= 2.2380877E+00 1.1173041E-13 6.5807493E-14
 diag_cg2d : k=  12 , it=   113   114 ; ini,min,last_Res= 2.2736287E+00 1.6779174E-13 9.5894848E-14
 diag_cg2d : k=  13 , it=    93    94 ; ini,min,last_Res= 2.3261852E+00 1.1548661E-13 4.7883336E-14
 diag_cg2d : k=  14 , it=    76    77 ; ini,min,last_Res= 1.9639730E+00 1.7317929E-13 9.0273501E-14
 diag_cg2d : k=  15 , it=    45    46 ; ini,min,last_Res= 1.7435706E+00 1.5687708E-13 6.8160516E-14
  get Post-Proc. Diag #     49  PsiVEL   from previous computation of Diag #     48
 Computing Diagnostic #     78  CONVADJ      Counter:       1   Parms: SMR     LR      
 Computing Diagnostic #     83  oceFWflx     Counter:       1   Parms: SM      U1      
 EXTERNAL_FIELDS_LOAD,         1 : iP,iLd,i0,i1=   12    1   12    1 ; Wght=  0.4996527778  0.5003472222
 DIC_FIELDS_LOAD,         1 : iP,iLd,i0,i1=   12    1   12    1 ; Wght=  0.4996527778  0.5003472222
 OBCS_FIELDS_LOAD,         2 : iP,iLd,i0,i1=   12    1   12    1 ; Wght=  0.4993055556  0.5006944444
 cg2d: Sum(rhs),rhsMax =   2.32297234355532E+02  7.56791265995027E+00
(PID.TID 0000.0001)      cg2d_init_res =   1.72687525466269E-02
(PID.TID 0000.0001)      cg2d_iters(min,last) =      -1      21
(PID.TID 0000.0001)      cg2d_last_res =   3.32737042776147E-14
(PID.TID 0000.0001) // =======================================================
(PID.TID 0000.0001) // Begin MONITOR dynamic field statistics
(PID.TID 0000.0001) // =======================================================
(PID.TID 0000.0001) %MON time_tsnumber                =                     2
(PID.TID 0000.0001) %MON time_secondsf                =   1.8000000000000E+03
(PID.TID 0000.0001) %MON dynstat_eta_max              =   4.2880262027712E-01
(PID.TID 0000.0001) %MON dynstat_eta_min              =  -1.4817390064416E+00
(PID.TID 0000.0001) %MON dynstat_eta_mean             =  -5.1768247341729E-01
(PID.TID 0000.0001) %MON dynstat_eta_sd               =   5.9975654243140E-01
(PID.TID 0000.0001) %MON dynstat_eta_del2             =   2.3557688209241E-03
(PID.TID 0000.0001) %MON dynstat_uvel_max             =   1.3024131324887E-01
(PID.TID 0000.0001) %MON dynstat_uvel_min             =  -6.0764892057826E-02
(PID.TID 0000.0001) %MON dynstat_uvel_mean            =   7.3600435448466E-03
(PID.TID 0000.0001) %MON dynstat_uvel_sd              =   1.4636042344067E-02
(PID.TID 0000.0001) %MON dynstat_uvel_del2            =   1.6229037592907E-04
(PID.TID 0000.0001) %MON dynstat_vvel_max             =   1.2947621639279E-01
(PID.TID 0000.0001) %MON dynstat_vvel_min             =  -8.8593844962161E-02
(PID.TID 0000.0001) %MON dynstat_vvel_mean            =   8.9794148945536E-04
(PID.TID 0000.0001) %MON dynstat_vvel_sd              =   8.4299041256168E-03
(PID.TID 0000.0001) %MON dynstat_vvel_del2            =   1.0629667009063E-04
(PID.TID 0000.0001) %MON dynstat_wvel_max             =   5.5159331258984E-05
(PID.TID 0000.0001) %MON dynstat_wvel_min             =  -1.4130414239853E-04
(PID.TID 0000.0001) %MON dynstat_wvel_mean            =  -2.4324081597626E-07
(PID.TID 0000.0001) %MON dynstat_wvel_sd              =   5.4438639717503E-06
(PID.TID 0000.0001) %MON dynstat_wvel_del2            =   1.4027041175438E-07
(PID.TID 0000.0001) %MON dynstat_theta_max            =   2.4158126968585E+01
(PID.TID 0000.0001) %MON dynstat_theta_min            =  -2.8958403533618E+00
(PID.TID 0000.0001) %MON dynstat_theta_mean           =   2.3216271376734E+00
(PID.TID 0000.0001) %MON dynstat_theta_sd             =   3.2104012717317E+00
(PID.TID 0000.0001) %MON dynstat_theta_del2           =   6.6464117588943E-03
(PID.TID 0000.0001) %MON dynstat_salt_max             =   3.6600792642717E+01
(PID.TID 0000.0001) %MON dynstat_salt_min             =   3.3084707038338E+01
(PID.TID 0000.0001) %MON dynstat_salt_mean            =   3.4483933671310E+01
(PID.TID 0000.0001) %MON dynstat_salt_sd              =   1.9644757094169E-01
(PID.TID 0000.0001) %MON dynstat_salt_del2            =   1.1588668038760E-03
(PID.TID 0000.0001) %MON forcing_qnet_max             =   6.8295495065053E+01
(PID.TID 0000.0001) %MON forcing_qnet_min             =  -2.1319512013329E+02
(PID.TID 0000.0001) %MON forcing_qnet_mean            =  -1.2119755356326E+02
(PID.TID 0000.0001) %MON forcing_qnet_sd              =   4.4772690142622E+01
(PID.TID 0000.0001) %MON forcing_qnet_del2            =   8.3495213206441E-01
(PID.TID 0000.0001) %MON forcing_qsw_max              =   0.0000000000000E+00
(PID.TID 0000.0001) %MON forcing_qsw_min              =   0.0000000000000E+00
(PID.TID 0000.0001) %MON forcing_qsw_mean             =   0.0000000000000E+00
(PID.TID 0000.0001) %MON forcing_qsw_sd               =   0.0000000000000E+00
(PID.TID 0000.0001) %MON forcing_qsw_del2             =   0.0000000000000E+00
(PID.TID 0000.0001) %MON forcing_empmr_max            =   2.5141471127199E-05
(PID.TID 0000.0001) %MON forcing_empmr_min            =  -3.9761445691511E-05
(PID.TID 0000.0001) %MON forcing_empmr_mean           =  -9.3236499820974E-06
(PID.TID 0000.0001) %MON forcing_empmr_sd             =   1.0249687273683E-05
(PID.TID 0000.0001) %MON forcing_empmr_del2           =   9.8755541425843E-08
(PID.TID 0000.0001) %MON forcing_fu_max               =   2.1189311683799E-01
(PID.TID 0000.0001) %MON forcing_fu_min               =  -9.0541482452924E-02
(PID.TID 0000.0001) %MON forcing_fu_mean              =   7.6103990517238E-02
(PID.TID 0000.0001) %MON forcing_fu_sd                =   7.1217116632945E-02
(PID.TID 0000.0001) %MON forcing_fu_del2              =   5.5130017831969E-04
(PID.TID 0000.0001) %MON forcing_fv_max               =   1.5117461776050E-01
(PID.TID 0000.0001) %MON forcing_fv_min               =  -7.6193314413023E-02
(PID.TID 0000.0001) %MON forcing_fv_mean              =  -1.9591340711754E-02
(PID.TID 0000.0001) %MON forcing_fv_sd                =   3.3563621496508E-02
(PID.TID 0000.0001) %MON forcing_fv_del2              =   3.7624718821223E-04
(PID.TID 0000.0001) %MON trAdv_CFL_u_max              =   1.7013526117513E-03
(PID.TID 0000.0001) %MON trAdv_CFL_v_max              =   3.8494848465426E-04
(PID.TID 0000.0001) %MON trAdv_CFL_w_max              =   1.3087791880489E-03
(PID.TID 0000.0001) %MON advcfl_uvel_max              =   7.0069673705758E-04
(PID.TID 0000.0001) %MON advcfl_vvel_max              =   3.7266892290761E-04
(PID.TID 0000.0001) %MON advcfl_wvel_max              =   3.4842117303746E-04
(PID.TID 0000.0001) %MON advcfl_W_hf_max              =   3.7404037693728E-04
(PID.TID 0000.0001) %MON pe_b_mean                    =   8.4574095360383E-04
(PID.TID 0000.0001) %MON ke_max                       =   9.2603001163703E-03
(PID.TID 0000.0001) %MON ke_mean                      =   1.6121312895508E-04
(PID.TID 0000.0001) %MON ke_vol                       =   1.2769337095763E+17
(PID.TID 0000.0001) %MON vort_r_min                   =  -4.7779889373026E-07
(PID.TID 0000.0001) %MON vort_r_max                   =   7.0476122808481E-07
(PID.TID 0000.0001) %MON vort_a_mean                  =  -1.0457492697395E-04
(PID.TID 0000.0001) %MON vort_a_sd                    =   2.1292573293337E-05
(PID.TID 0000.0001) %MON vort_p_mean                  =  -1.2574624494437E-04
(PID.TID 0000.0001) %MON vort_p_sd                    =   1.1183795531748E-04
(PID.TID 0000.0001) %MON surfExpan_theta_mean         =  -7.2277777766157E-08
(PID.TID 0000.0001) %MON surfExpan_salt_mean          =   9.2106746047353E-08
(PID.TID 0000.0001) // =======================================================
(PID.TID 0000.0001) // End MONITOR dynamic field statistics
(PID.TID 0000.0001) // =======================================================
(PID.TID 0000.0001) // =======================================================
(PID.TID 0000.0001) // Begin OBCS MONITOR field statistics
(PID.TID 0000.0001) // =======================================================
(PID.TID 0000.0001) %MON obc_E_uVel_max               =   8.4226216541396E-02
(PID.TID 0000.0001) %MON obc_E_uVel_min               =  -6.0764892057826E-02
(PID.TID 0000.0001) %MON obc_E_uVel_mean              =   7.3664147613238E-03
(PID.TID 0000.0001) %MON obc_E_uVel_sd                =   1.4300299222026E-02
(PID.TID 0000.0001) %MON obc_E_uVel_Int               =   1.2629429845524E+08
(PID.TID 0000.0001) %MON obc_W_uVel_max               =   5.9704915811825E-02
(PID.TID 0000.0001) %MON obc_W_uVel_min               =  -2.5726418462323E-02
(PID.TID 0000.0001) %MON obc_W_uVel_mean              =   7.0234794626582E-03
(PID.TID 0000.0001) %MON obc_W_uVel_sd                =   1.1104003360851E-02
(PID.TID 0000.0001) %MON obc_W_uVel_Int               =   1.3126377916888E+08
(PID.TID 0000.0001) %MON obc_N_vVel_max               =   4.7466487171025E-02
(PID.TID 0000.0001) %MON obc_N_vVel_min               =  -7.0456978316522E-02
(PID.TID 0000.0001) %MON obc_N_vVel_mean              =   1.6515133161993E-04
(PID.TID 0000.0001) %MON obc_N_vVel_sd                =   6.4416161406568E-03
(PID.TID 0000.0001) %MON obc_N_vVel_Int               =   4.8280088721002E+06
(PID.TID 0000.0001) %MON obc_E_theta_max              =   1.9184990199407E+01
(PID.TID 0000.0001) %MON obc_E_theta_min              =  -1.6426032626794E+00
(PID.TID 0000.0001) %MON obc_E_theta_mean             =   1.9094773077443E+00
(PID.TID 0000.0001) %MON obc_E_theta_sd               =   2.9652452019384E+00
(PID.TID 0000.0001) %MON obc_W_theta_max              =   2.1405471958054E+01
(PID.TID 0000.0001) %MON obc_W_theta_min              =  -1.4417662902839E+00
(PID.TID 0000.0001) %MON obc_W_theta_mean             =   2.4654106568343E+00
(PID.TID 0000.0001) %MON obc_W_theta_sd               =   2.9592603122406E+00
(PID.TID 0000.0001) %MON obc_N_theta_max              =   2.3973505602943E+01
(PID.TID 0000.0001) %MON obc_N_theta_min              =  -6.3044445684387E-01
(PID.TID 0000.0001) %MON obc_N_theta_mean             =   4.8710295902421E+00
(PID.TID 0000.0001) %MON obc_N_theta_sd               =   4.7009838879420E+00
(PID.TID 0000.0001) // =======================================================
(PID.TID 0000.0001) // End OBCS MONITOR field statistics
(PID.TID 0000.0001) // =======================================================
(PID.TID 0000.0001) // =======================================================
(PID.TID 0000.0001) // Begin MONITOR ptracer field statistics
(PID.TID 0000.0001) // =======================================================
(PID.TID 0000.0001) %MON trcstat_ptracer01_max        =   2.3591387552726E+00
(PID.TID 0000.0001) %MON trcstat_ptracer01_min        =   1.9367695133486E+00
(PID.TID 0000.0001) %MON trcstat_ptracer01_mean       =   2.2425300483796E+00
(PID.TID 0000.0001) %MON trcstat_ptracer01_sd         =   7.5981746250804E-02
(PID.TID 0000.0001) %MON trcstat_ptracer01_del2       =   1.0693782661753E-04
(PID.TID 0000.0001) %MON trcstat_ptracer02_max        =   2.4116826161772E+00
(PID.TID 0000.0001) %MON trcstat_ptracer02_min        =   2.1899137269816E+00
(PID.TID 0000.0001) %MON trcstat_ptracer02_mean       =   2.3520448466295E+00
(PID.TID 0000.0001) %MON trcstat_ptracer02_sd         =   3.5091235080915E-02
(PID.TID 0000.0001) %MON trcstat_ptracer02_del2       =   8.0636590319737E-05
(PID.TID 0000.0001) %MON trcstat_ptracer03_max        =   2.7654631360722E-03
(PID.TID 0000.0001) %MON trcstat_ptracer03_min        =   4.7438651590359E-05
(PID.TID 0000.0001) %MON trcstat_ptracer03_mean       =   2.0556796712599E-03
(PID.TID 0000.0001) %MON trcstat_ptracer03_sd         =   5.0322703667327E-04
(PID.TID 0000.0001) %MON trcstat_ptracer03_del2       =   6.7077135846609E-07
(PID.TID 0000.0001) %MON trcstat_ptracer04_max        =   2.5667255738531E-04
(PID.TID 0000.0001) %MON trcstat_ptracer04_min        =  -7.4560231930773E-07
(PID.TID 0000.0001) %MON trcstat_ptracer04_mean       =   6.2005058870322E-06
(PID.TID 0000.0001) %MON trcstat_ptracer04_sd         =   2.6097688706968E-05
(PID.TID 0000.0001) %MON trcstat_ptracer04_del2       =   1.3471447196336E-07
(PID.TID 0000.0001) %MON trcstat_ptracer05_max        =   3.8357829554055E-01
(PID.TID 0000.0001) %MON trcstat_ptracer05_min        =   8.2343964158661E-02
(PID.TID 0000.0001) %MON trcstat_ptracer05_mean       =   2.1413272810080E-01
(PID.TID 0000.0001) %MON trcstat_ptracer05_sd         =   4.3053461604290E-02
(PID.TID 0000.0001) %MON trcstat_ptracer05_del2       =   1.1918432543142E-04
(PID.TID 0000.0001) // =======================================================
(PID.TID 0000.0001) // End MONITOR ptracers field statistics
(PID.TID 0000.0001) // =======================================================
 EXTERNAL_FIELDS_LOAD,         2 : iP,iLd,i0,i1=   12    1   12    1 ; Wght=  0.4993055556  0.5006944444
 DIC_FIELDS_LOAD,         2 : iP,iLd,i0,i1=   12    1   12    1 ; Wght=  0.4993055556  0.5006944444
 OBCS_FIELDS_LOAD,         3 : iP,iLd,i0,i1=   12    1   12    1 ; Wght=  0.4989583333  0.5010416667
 cg2d: Sum(rhs),rhsMax =   2.32293629197498E+02  7.56797703751534E+00
(PID.TID 0000.0001)      cg2d_init_res =   1.55853619456786E-02
(PID.TID 0000.0001)      cg2d_iters(min,last) =      -1      21
(PID.TID 0000.0001)      cg2d_last_res =   2.53563110158835E-14
(PID.TID 0000.0001) // =======================================================
(PID.TID 0000.0001) // Begin MONITOR dynamic field statistics
(PID.TID 0000.0001) // =======================================================
(PID.TID 0000.0001) %MON time_tsnumber                =                     3
(PID.TID 0000.0001) %MON time_secondsf                =   2.7000000000000E+03
(PID.TID 0000.0001) %MON dynstat_eta_max              =   4.3047592754157E-01
(PID.TID 0000.0001) %MON dynstat_eta_min              =  -1.4817865346471E+00
(PID.TID 0000.0001) %MON dynstat_eta_mean             =  -5.1767884287106E-01
(PID.TID 0000.0001) %MON dynstat_eta_sd               =   5.9979608917572E-01
(PID.TID 0000.0001) %MON dynstat_eta_del2             =   2.3545487399567E-03
(PID.TID 0000.0001) %MON dynstat_uvel_max             =   1.3028153646107E-01
(PID.TID 0000.0001) %MON dynstat_uvel_min             =  -6.0763304168358E-02
(PID.TID 0000.0001) %MON dynstat_uvel_mean            =   7.3681816886689E-03
(PID.TID 0000.0001) %MON dynstat_uvel_sd              =   1.4632042806981E-02
(PID.TID 0000.0001) %MON dynstat_uvel_del2            =   1.6219043999065E-04
(PID.TID 0000.0001) %MON dynstat_vvel_max             =   1.2942770278423E-01
(PID.TID 0000.0001) %MON dynstat_vvel_min             =  -8.8613451548897E-02
(PID.TID 0000.0001) %MON dynstat_vvel_mean            =   9.0388841121349E-04
(PID.TID 0000.0001) %MON dynstat_vvel_sd              =   8.4258053392561E-03
(PID.TID 0000.0001) %MON dynstat_vvel_del2            =   1.0619458111194E-04
(PID.TID 0000.0001) %MON dynstat_wvel_max             =   5.5125874837399E-05
(PID.TID 0000.0001) %MON dynstat_wvel_min             =  -1.4127193924912E-04
(PID.TID 0000.0001) %MON dynstat_wvel_mean            =  -2.4324074180737E-07
(PID.TID 0000.0001) %MON dynstat_wvel_sd              =   5.4519302376427E-06
(PID.TID 0000.0001) %MON dynstat_wvel_del2            =   1.4030542833759E-07
(PID.TID 0000.0001) %MON dynstat_theta_max            =   2.4158476014046E+01
(PID.TID 0000.0001) %MON dynstat_theta_min            =  -2.8958427014952E+00
(PID.TID 0000.0001) %MON dynstat_theta_mean           =   2.3216338223299E+00
(PID.TID 0000.0001) %MON dynstat_theta_sd             =   3.2104197022380E+00
(PID.TID 0000.0001) %MON dynstat_theta_del2           =   6.6463480395880E-03
(PID.TID 0000.0001) %MON dynstat_salt_max             =   3.6600796744182E+01
(PID.TID 0000.0001) %MON dynstat_salt_min             =   3.3084683045357E+01
(PID.TID 0000.0001) %MON dynstat_salt_mean            =   3.4483933695089E+01
(PID.TID 0000.0001) %MON dynstat_salt_sd              =   1.9644777128290E-01
(PID.TID 0000.0001) %MON dynstat_salt_del2            =   1.1588539657313E-03
(PID.TID 0000.0001) %MON forcing_qnet_max             =   6.8296236101786E+01
(PID.TID 0000.0001) %MON forcing_qnet_min             =  -2.1318623025682E+02
(PID.TID 0000.0001) %MON forcing_qnet_mean            =  -1.2119182657968E+02
(PID.TID 0000.0001) %MON forcing_qnet_sd              =   4.4769449084945E+01
(PID.TID 0000.0001) %MON forcing_qnet_del2            =   8.3497463318386E-01
(PID.TID 0000.0001) %MON forcing_qsw_max              =   0.0000000000000E+00
(PID.TID 0000.0001) %MON forcing_qsw_min              =   0.0000000000000E+00
(PID.TID 0000.0001) %MON forcing_qsw_mean             =   0.0000000000000E+00
(PID.TID 0000.0001) %MON forcing_qsw_sd               =   0.0000000000000E+00
(PID.TID 0000.0001) %MON forcing_qsw_del2             =   0.0000000000000E+00
(PID.TID 0000.0001) %MON forcing_empmr_max            =   2.5141471127199E-05
(PID.TID 0000.0001) %MON forcing_empmr_min            =  -3.9761445691511E-05
(PID.TID 0000.0001) %MON forcing_empmr_mean           =  -9.3236499820974E-06
(PID.TID 0000.0001) %MON forcing_empmr_sd             =   1.0249687273683E-05
(PID.TID 0000.0001) %MON forcing_empmr_del2           =   9.8755541425843E-08
(PID.TID 0000.0001) %MON forcing_fu_max               =   2.1189580441763E-01
(PID.TID 0000.0001) %MON forcing_fu_min               =  -9.0550155409922E-02
(PID.TID 0000.0001) %MON forcing_fu_mean              =   7.6101891581436E-02
(PID.TID 0000.0001) %MON forcing_fu_sd                =   7.1217834136417E-02
(PID.TID 0000.0001) %MON forcing_fu_del2              =   5.5131816997694E-04
(PID.TID 0000.0001) %MON forcing_fv_max               =   1.5116818587606E-01
(PID.TID 0000.0001) %MON forcing_fv_min               =  -7.6192685206317E-02
(PID.TID 0000.0001) %MON forcing_fv_mean              =  -1.9590110734888E-02
(PID.TID 0000.0001) %MON forcing_fv_sd                =   3.3563316901153E-02
(PID.TID 0000.0001) %MON forcing_fv_del2              =   3.7623426399078E-04
(PID.TID 0000.0001) %MON trAdv_CFL_u_max              =   1.7011209145865E-03
(PID.TID 0000.0001) %MON trAdv_CFL_v_max              =   3.8477546772824E-04
(PID.TID 0000.0001) %MON trAdv_CFL_w_max              =   1.3081027230490E-03
(PID.TID 0000.0001) %MON advcfl_uvel_max              =   7.0091313746723E-04
(PID.TID 0000.0001) %MON advcfl_vvel_max              =   3.7252928711386E-04
(PID.TID 0000.0001) %MON advcfl_wvel_max              =   3.4834176801154E-04
(PID.TID 0000.0001) %MON advcfl_W_hf_max              =   3.7395513330651E-04
(PID.TID 0000.0001) %MON pe_b_mean                    =   8.4579980550821E-04
(PID.TID 0000.0001) %MON ke_max                       =   9.2579210566792E-03
(PID.TID 0000.0001) %MON ke_mean                      =   1.6118649821930E-04
(PID.TID 0000.0001) %MON ke_vol                       =   1.2769337095763E+17
(PID.TID 0000.0001) %MON vort_r_min                   =  -4.7745598367579E-07
(PID.TID 0000.0001) %MON vort_r_max                   =   7.0430554263008E-07
(PID.TID 0000.0001) %MON vort_a_mean                  =  -1.0457492696322E-04
(PID.TID 0000.0001) %MON vort_a_sd                    =   2.1292577139034E-05
(PID.TID 0000.0001) %MON vort_p_mean                  =  -1.2574624493147E-04
(PID.TID 0000.0001) %MON vort_p_sd                    =   1.1183795487579E-04
(PID.TID 0000.0001) %MON surfExpan_theta_mean         =  -9.8042373367246E-09
(PID.TID 0000.0001) %MON surfExpan_salt_mean          =   1.0512303666692E-07
(PID.TID 0000.0001) // =======================================================
(PID.TID 0000.0001) // End MONITOR dynamic field statistics
(PID.TID 0000.0001) // =======================================================
(PID.TID 0000.0001) // =======================================================
(PID.TID 0000.0001) // Begin OBCS MONITOR field statistics
(PID.TID 0000.0001) // =======================================================
(PID.TID 0000.0001) %MON obc_E_uVel_max               =   8.4223416695992E-02
(PID.TID 0000.0001) %MON obc_E_uVel_min               =  -6.0763304168358E-02
(PID.TID 0000.0001) %MON obc_E_uVel_mean              =   7.3663765795280E-03
(PID.TID 0000.0001) %MON obc_E_uVel_sd                =   1.4300311965807E-02
(PID.TID 0000.0001) %MON obc_E_uVel_Int               =   1.2629364384329E+08
(PID.TID 0000.0001) %MON obc_W_uVel_max               =   5.9705916613651E-02
(PID.TID 0000.0001) %MON obc_W_uVel_min               =  -2.5726468048136E-02
(PID.TID 0000.0001) %MON obc_W_uVel_mean              =   7.0233883295022E-03
(PID.TID 0000.0001) %MON obc_W_uVel_sd                =   1.1104085318999E-02
(PID.TID 0000.0001) %MON obc_W_uVel_Int               =   1.3126207595575E+08
(PID.TID 0000.0001) %MON obc_N_vVel_max               =   4.7465374479846E-02
(PID.TID 0000.0001) %MON obc_N_vVel_min               =  -7.0458053254212E-02
(PID.TID 0000.0001) %MON obc_N_vVel_mean              =   1.6511466079418E-04
(PID.TID 0000.0001) %MON obc_N_vVel_sd                =   6.4415871014260E-03
(PID.TID 0000.0001) %MON obc_N_vVel_Int               =   4.8269368427662E+06
(PID.TID 0000.0001) %MON obc_E_theta_max              =   1.9185437607765E+01
(PID.TID 0000.0001) %MON obc_E_theta_min              =  -1.6424229806910E+00
(PID.TID 0000.0001) %MON obc_E_theta_mean             =   1.9094770757127E+00
(PID.TID 0000.0001) %MON obc_E_theta_sd               =   2.9652550017384E+00
(PID.TID 0000.0001) %MON obc_W_theta_max              =   2.1405892606576E+01
(PID.TID 0000.0001) %MON obc_W_theta_min              =  -1.4417680031310E+00
(PID.TID 0000.0001) %MON obc_W_theta_mean             =   2.4654151826235E+00
(PID.TID 0000.0001) %MON obc_W_theta_sd               =   2.9592715273965E+00
(PID.TID 0000.0001) %MON obc_N_theta_max              =   2.3973940769831E+01
(PID.TID 0000.0001) %MON obc_N_theta_min              =  -6.3045492724826E-01
(PID.TID 0000.0001) %MON obc_N_theta_mean             =   4.8710340046732E+00
(PID.TID 0000.0001) %MON obc_N_theta_sd               =   4.7010022087839E+00
(PID.TID 0000.0001) // =======================================================
(PID.TID 0000.0001) // End OBCS MONITOR field statistics
(PID.TID 0000.0001) // =======================================================
(PID.TID 0000.0001) // =======================================================
(PID.TID 0000.0001) // Begin MONITOR ptracer field statistics
(PID.TID 0000.0001) // =======================================================
(PID.TID 0000.0001) %MON trcstat_ptracer01_max        =   2.3591387689119E+00
(PID.TID 0000.0001) %MON trcstat_ptracer01_min        =   1.9367691101017E+00
(PID.TID 0000.0001) %MON trcstat_ptracer01_mean       =   2.2425300201896E+00
(PID.TID 0000.0001) %MON trcstat_ptracer01_sd         =   7.5981813235036E-02
(PID.TID 0000.0001) %MON trcstat_ptracer01_del2       =   1.0693656973953E-04
(PID.TID 0000.0001) %MON trcstat_ptracer02_max        =   2.4116826248981E+00
(PID.TID 0000.0001) %MON trcstat_ptracer02_min        =   2.1899144358303E+00
(PID.TID 0000.0001) %MON trcstat_ptracer02_mean       =   2.3520448535817E+00
(PID.TID 0000.0001) %MON trcstat_ptracer02_sd         =   3.5091230801369E-02
(PID.TID 0000.0001) %MON trcstat_ptracer02_del2       =   8.0636433002570E-05
(PID.TID 0000.0001) %MON trcstat_ptracer03_max        =   2.7654632183587E-03
(PID.TID 0000.0001) %MON trcstat_ptracer03_min        =   4.7437708394475E-05
(PID.TID 0000.0001) %MON trcstat_ptracer03_mean       =   2.0556794734875E-03
(PID.TID 0000.0001) %MON trcstat_ptracer03_sd         =   5.0322738329468E-04
(PID.TID 0000.0001) %MON trcstat_ptracer03_del2       =   6.7076661864693E-07
(PID.TID 0000.0001) %MON trcstat_ptracer04_max        =   2.5667966060355E-04
(PID.TID 0000.0001) %MON trcstat_ptracer04_min        =  -7.4560246092711E-07
(PID.TID 0000.0001) %MON trcstat_ptracer04_mean       =   6.2006782828080E-06
(PID.TID 0000.0001) %MON trcstat_ptracer04_sd         =   2.6098526261738E-05
(PID.TID 0000.0001) %MON trcstat_ptracer04_del2       =   1.3471597307520E-07
(PID.TID 0000.0001) %MON trcstat_ptracer05_max        =   3.8357913764241E-01
(PID.TID 0000.0001) %MON trcstat_ptracer05_min        =   8.2344759107209E-02
(PID.TID 0000.0001) %MON trcstat_ptracer05_mean       =   2.1413269140147E-01
(PID.TID 0000.0001) %MON trcstat_ptracer05_sd         =   4.3053412410411E-02
(PID.TID 0000.0001) %MON trcstat_ptracer05_del2       =   1.1918052001332E-04
(PID.TID 0000.0001) // =======================================================
(PID.TID 0000.0001) // End MONITOR ptracers field statistics
(PID.TID 0000.0001) // =======================================================
 EXTERNAL_FIELDS_LOAD,         3 : iP,iLd,i0,i1=   12    1   12    1 ; Wght=  0.4989583333  0.5010416667
 DIC_FIELDS_LOAD,         3 : iP,iLd,i0,i1=   12    1   12    1 ; Wght=  0.4989583333  0.5010416667
 OBCS_FIELDS_LOAD,         4 : iP,iLd,i0,i1=   12    1   12    1 ; Wght=  0.4986111111  0.5013888889
 cg2d: Sum(rhs),rhsMax =   2.32288220729652E+02  7.56810016083208E+00
(PID.TID 0000.0001)      cg2d_init_res =   1.37059504499813E-02
(PID.TID 0000.0001)      cg2d_iters(min,last) =      -1      21
(PID.TID 0000.0001)      cg2d_last_res =   2.06476943104476E-14
(PID.TID 0000.0001) // =======================================================
(PID.TID 0000.0001) // Begin MONITOR dynamic field statistics
(PID.TID 0000.0001) // =======================================================
(PID.TID 0000.0001) %MON time_tsnumber                =                     4
(PID.TID 0000.0001) %MON time_secondsf                =   3.6000000000000E+03
(PID.TID 0000.0001) %MON dynstat_eta_max              =   4.3182118592682E-01
(PID.TID 0000.0001) %MON dynstat_eta_min              =  -1.4819285453940E+00
(PID.TID 0000.0001) %MON dynstat_eta_mean             =  -5.1767521172371E-01
(PID.TID 0000.0001) %MON dynstat_eta_sd               =   5.9984192505947E-01
(PID.TID 0000.0001) %MON dynstat_eta_del2             =   2.3527998246852E-03
(PID.TID 0000.0001) %MON dynstat_uvel_max             =   1.3034283071993E-01
(PID.TID 0000.0001) %MON dynstat_uvel_min             =  -6.0761716278891E-02
(PID.TID 0000.0001) %MON dynstat_uvel_mean            =   7.3765663627655E-03
(PID.TID 0000.0001) %MON dynstat_uvel_sd              =   1.4628264374201E-02
(PID.TID 0000.0001) %MON dynstat_uvel_del2            =   1.6208895706581E-04
(PID.TID 0000.0001) %MON dynstat_vvel_max             =   1.2938878111536E-01
(PID.TID 0000.0001) %MON dynstat_vvel_min             =  -8.8621979821691E-02
(PID.TID 0000.0001) %MON dynstat_vvel_mean            =   9.1094545481755E-04
(PID.TID 0000.0001) %MON dynstat_vvel_sd              =   8.4217225885576E-03
(PID.TID 0000.0001) %MON dynstat_vvel_del2            =   1.0609256282088E-04
(PID.TID 0000.0001) %MON dynstat_wvel_max             =   5.5080452851768E-05
(PID.TID 0000.0001) %MON dynstat_wvel_min             =  -1.4124634105723E-04
(PID.TID 0000.0001) %MON dynstat_wvel_mean            =  -2.4324066763848E-07
(PID.TID 0000.0001) %MON dynstat_wvel_sd              =   5.4616116155029E-06
(PID.TID 0000.0001) %MON dynstat_wvel_del2            =   1.4026524675258E-07
(PID.TID 0000.0001) %MON dynstat_theta_max            =   2.4158806351867E+01
(PID.TID 0000.0001) %MON dynstat_theta_min            =  -2.8958450466401E+00
(PID.TID 0000.0001) %MON dynstat_theta_mean           =   2.3216404884935E+00
(PID.TID 0000.0001) %MON dynstat_theta_sd             =   3.2104380430414E+00
(PID.TID 0000.0001) %MON dynstat_theta_del2           =   6.6462835943836E-03
(PID.TID 0000.0001) %MON dynstat_salt_max             =   3.6600800631404E+01
(PID.TID 0000.0001) %MON dynstat_salt_min             =   3.3084659021760E+01
(PID.TID 0000.0001) %MON dynstat_salt_mean            =   3.4483933715481E+01
(PID.TID 0000.0001) %MON dynstat_salt_sd              =   1.9644795650361E-01
(PID.TID 0000.0001) %MON dynstat_salt_del2            =   1.1588410378481E-03
(PID.TID 0000.0001) %MON forcing_qnet_max             =   6.8296977138519E+01
(PID.TID 0000.0001) %MON forcing_qnet_min             =  -2.1317734038035E+02
(PID.TID 0000.0001) %MON forcing_qnet_mean            =  -1.2118609959610E+02
(PID.TID 0000.0001) %MON forcing_qnet_sd              =   4.4766209536643E+01
(PID.TID 0000.0001) %MON forcing_qnet_del2            =   8.3499715601471E-01
(PID.TID 0000.0001) %MON forcing_qsw_max              =   0.0000000000000E+00
(PID.TID 0000.0001) %MON forcing_qsw_min              =   0.0000000000000E+00
(PID.TID 0000.0001) %MON forcing_qsw_mean             =   0.0000000000000E+00
(PID.TID 0000.0001) %MON forcing_qsw_sd               =   0.0000000000000E+00
(PID.TID 0000.0001) %MON forcing_qsw_del2             =   0.0000000000000E+00
(PID.TID 0000.0001) %MON forcing_empmr_max            =   2.5141471127199E-05
(PID.TID 0000.0001) %MON forcing_empmr_min            =  -3.9761445691511E-05
(PID.TID 0000.0001) %MON forcing_empmr_mean           =  -9.3236499820974E-06
(PID.TID 0000.0001) %MON forcing_empmr_sd             =   1.0249687273683E-05
(PID.TID 0000.0001) %MON forcing_empmr_del2           =   9.8755541425843E-08
(PID.TID 0000.0001) %MON forcing_fu_max               =   2.1189849199727E-01
(PID.TID 0000.0001) %MON forcing_fu_min               =  -9.0558828366920E-02
(PID.TID 0000.0001) %MON forcing_fu_mean              =   7.6099792645634E-02
(PID.TID 0000.0001) %MON forcing_fu_sd                =   7.1218551978902E-02
(PID.TID 0000.0001) %MON forcing_fu_del2              =   5.5133618113807E-04
(PID.TID 0000.0001) %MON forcing_fv_max               =   1.5116175399162E-01
(PID.TID 0000.0001) %MON forcing_fv_min               =  -7.6192055999612E-02
(PID.TID 0000.0001) %MON forcing_fv_mean              =  -1.9588880758021E-02
(PID.TID 0000.0001) %MON forcing_fv_sd                =   3.3563012616891E-02
(PID.TID 0000.0001) %MON forcing_fv_del2              =   3.7622135559296E-04
(PID.TID 0000.0001) %MON trAdv_CFL_u_max              =   1.7009217809465E-03
(PID.TID 0000.0001) %MON trAdv_CFL_v_max              =   3.8488868137323E-04
(PID.TID 0000.0001) %MON trAdv_CFL_w_max              =   1.3074189628806E-03
(PID.TID 0000.0001) %MON advcfl_uvel_max              =   7.0124289986069E-04
(PID.TID 0000.0001) %MON advcfl_vvel_max              =   3.7241725961706E-04
(PID.TID 0000.0001) %MON advcfl_wvel_max              =   3.4827864918221E-04
(PID.TID 0000.0001) %MON advcfl_W_hf_max              =   3.7388737338679E-04
(PID.TID 0000.0001) %MON pe_b_mean                    =   8.4586882656114E-04
(PID.TID 0000.0001) %MON ke_max                       =   9.2586055462856E-03
(PID.TID 0000.0001) %MON ke_mean                      =   1.6116601062183E-04
(PID.TID 0000.0001) %MON ke_vol                       =   1.2769337095763E+17
(PID.TID 0000.0001) %MON vort_r_min                   =  -4.7705494070020E-07
(PID.TID 0000.0001) %MON vort_r_max                   =   7.0389601481626E-07
(PID.TID 0000.0001) %MON vort_a_mean                  =  -1.0457492695249E-04
(PID.TID 0000.0001) %MON vort_a_sd                    =   2.1292581175702E-05
(PID.TID 0000.0001) %MON vort_p_mean                  =  -1.2574624491856E-04
(PID.TID 0000.0001) %MON vort_p_sd                    =   1.1183795525945E-04
(PID.TID 0000.0001) %MON surfExpan_theta_mean         =   6.8844630995152E-08
(PID.TID 0000.0001) %MON surfExpan_salt_mean          =   1.1744778923763E-07
(PID.TID 0000.0001) // =======================================================
(PID.TID 0000.0001) // End MONITOR dynamic field statistics
(PID.TID 0000.0001) // =======================================================
(PID.TID 0000.0001) // =======================================================
(PID.TID 0000.0001) // Begin OBCS MONITOR field statistics
(PID.TID 0000.0001) // =======================================================
(PID.TID 0000.0001) %MON obc_E_uVel_max               =   8.4220616850588E-02
(PID.TID 0000.0001) %MON obc_E_uVel_min               =  -6.0761716278891E-02
(PID.TID 0000.0001) %MON obc_E_uVel_mean              =   7.3663383977321E-03
(PID.TID 0000.0001) %MON obc_E_uVel_sd                =   1.4300324714753E-02
(PID.TID 0000.0001) %MON obc_E_uVel_Int               =   1.2629298923134E+08
(PID.TID 0000.0001) %MON obc_W_uVel_max               =   5.9706917415477E-02
(PID.TID 0000.0001) %MON obc_W_uVel_min               =  -2.5726517633949E-02
(PID.TID 0000.0001) %MON obc_W_uVel_mean              =   7.0232971963462E-03
(PID.TID 0000.0001) %MON obc_W_uVel_sd                =   1.1104167282794E-02
(PID.TID 0000.0001) %MON obc_W_uVel_Int               =   1.3126037274261E+08
(PID.TID 0000.0001) %MON obc_N_vVel_max               =   4.7464261788668E-02
(PID.TID 0000.0001) %MON obc_N_vVel_min               =  -7.0459128191902E-02
(PID.TID 0000.0001) %MON obc_N_vVel_mean              =   1.6507798996844E-04
(PID.TID 0000.0001) %MON obc_N_vVel_sd                =   6.4415580693623E-03
(PID.TID 0000.0001) %MON obc_N_vVel_Int               =   4.8258648134323E+06
(PID.TID 0000.0001) %MON obc_E_theta_max              =   1.9185885016123E+01
(PID.TID 0000.0001) %MON obc_E_theta_min              =  -1.6422426987025E+00
(PID.TID 0000.0001) %MON obc_E_theta_mean             =   1.9094768436811E+00
(PID.TID 0000.0001) %MON obc_E_theta_sd               =   2.9652648021468E+00
(PID.TID 0000.0001) %MON obc_W_theta_max              =   2.1406313255098E+01
(PID.TID 0000.0001) %MON obc_W_theta_min              =  -1.4417697159780E+00
(PID.TID 0000.0001) %MON obc_W_theta_mean             =   2.4654197084127E+00
(PID.TID 0000.0001) %MON obc_W_theta_sd               =   2.9592827429554E+00
(PID.TID 0000.0001) %MON obc_N_theta_max              =   2.3974375936720E+01
(PID.TID 0000.0001) %MON obc_N_theta_min              =  -6.3046539765265E-01
(PID.TID 0000.0001) %MON obc_N_theta_mean             =   4.8710384191043E+00
(PID.TID 0000.0001) %MON obc_N_theta_sd               =   4.7010205300348E+00
(PID.TID 0000.0001) // =======================================================
(PID.TID 0000.0001) // End OBCS MONITOR field statistics
(PID.TID 0000.0001) // =======================================================
(PID.TID 0000.0001) // =======================================================
(PID.TID 0000.0001) // Begin MONITOR ptracer field statistics
(PID.TID 0000.0001) // =======================================================
(PID.TID 0000.0001) %MON trcstat_ptracer01_max        =   2.3591387822384E+00
(PID.TID 0000.0001) %MON trcstat_ptracer01_min        =   1.9367687068779E+00
(PID.TID 0000.0001) %MON trcstat_ptracer01_mean       =   2.2425299919980E+00
(PID.TID 0000.0001) %MON trcstat_ptracer01_sd         =   7.5981880313831E-02
(PID.TID 0000.0001) %MON trcstat_ptracer01_del2       =   1.0693506022707E-04
(PID.TID 0000.0001) %MON trcstat_ptracer02_max        =   2.4116826362395E+00
(PID.TID 0000.0001) %MON trcstat_ptracer02_min        =   2.1899151475506E+00
(PID.TID 0000.0001) %MON trcstat_ptracer02_mean       =   2.3520448603781E+00
(PID.TID 0000.0001) %MON trcstat_ptracer02_sd         =   3.5091226647810E-02
(PID.TID 0000.0001) %MON trcstat_ptracer02_del2       =   8.0636286465179E-05
(PID.TID 0000.0001) %MON trcstat_ptracer03_max        =   2.7654632987571E-03
(PID.TID 0000.0001) %MON trcstat_ptracer03_min        =   4.7436765489412E-05
(PID.TID 0000.0001) %MON trcstat_ptracer03_mean       =   2.0556792761160E-03
(PID.TID 0000.0001) %MON trcstat_ptracer03_sd         =   5.0322772928530E-04
(PID.TID 0000.0001) %MON trcstat_ptracer03_del2       =   6.7076012856774E-07
(PID.TID 0000.0001) %MON trcstat_ptracer04_max        =   2.5668690076155E-04
(PID.TID 0000.0001) %MON trcstat_ptracer04_min        =  -7.4560260470531E-07
(PID.TID 0000.0001) %MON trcstat_ptracer04_mean       =   6.2008507962805E-06
(PID.TID 0000.0001) %MON trcstat_ptracer04_sd         =   2.6099364676396E-05
(PID.TID 0000.0001) %MON trcstat_ptracer04_del2       =   1.3471605763915E-07
(PID.TID 0000.0001) %MON trcstat_ptracer05_max        =   3.8357993799175E-01
(PID.TID 0000.0001) %MON trcstat_ptracer05_min        =   8.2345464424845E-02
(PID.TID 0000.0001) %MON trcstat_ptracer05_mean       =   2.1413265478192E-01
(PID.TID 0000.0001) %MON trcstat_ptracer05_sd         =   4.3053363485971E-02
(PID.TID 0000.0001) %MON trcstat_ptracer05_del2       =   1.1917639906594E-04
(PID.TID 0000.0001) // =======================================================
(PID.TID 0000.0001) // End MONITOR ptracers field statistics
(PID.TID 0000.0001) // =======================================================
 EXTERNAL_FIELDS_LOAD,         4 : iP,iLd,i0,i1=   12    1   12    1 ; Wght=  0.4986111111  0.5013888889
 DIC_FIELDS_LOAD,         4 : iP,iLd,i0,i1=   12    1   12    1 ; Wght=  0.4986111111  0.5013888889
 OBCS_FIELDS_LOAD,         5 : iP,iLd,i0,i1=   12    1   12    1 ; Wght=  0.4982638889  0.5017361111
 cg2d: Sum(rhs),rhsMax =   2.32277485025273E+02  7.56839685674453E+00
(PID.TID 0000.0001)      cg2d_init_res =   1.20244722209966E-02
(PID.TID 0000.0001)      cg2d_iters(min,last) =      -1      20
(PID.TID 0000.0001)      cg2d_last_res =   8.99034811690449E-14
(PID.TID 0000.0001) // =======================================================
(PID.TID 0000.0001) // Begin MONITOR dynamic field statistics
(PID.TID 0000.0001) // =======================================================
(PID.TID 0000.0001) %MON time_tsnumber                =                     5
(PID.TID 0000.0001) %MON time_secondsf                =   4.5000000000000E+03
(PID.TID 0000.0001) %MON dynstat_eta_max              =   4.3280196907803E-01
(PID.TID 0000.0001) %MON dynstat_eta_min              =  -1.4822090497852E+00
(PID.TID 0000.0001) %MON dynstat_eta_mean             =  -5.1767157997523E-01
(PID.TID 0000.0001) %MON dynstat_eta_sd               =   5.9989586727324E-01
(PID.TID 0000.0001) %MON dynstat_eta_del2             =   2.3511577076811E-03
(PID.TID 0000.0001) %MON dynstat_uvel_max             =   1.3042459071075E-01
(PID.TID 0000.0001) %MON dynstat_uvel_min             =  -6.0760128389423E-02
(PID.TID 0000.0001) %MON dynstat_uvel_mean            =   7.3848759080185E-03
(PID.TID 0000.0001) %MON dynstat_uvel_sd              =   1.4624801923287E-02
(PID.TID 0000.0001) %MON dynstat_uvel_del2            =   1.6198822116587E-04
(PID.TID 0000.0001) %MON dynstat_vvel_max             =   1.2935951226857E-01
(PID.TID 0000.0001) %MON dynstat_vvel_min             =  -8.8621852549007E-02
(PID.TID 0000.0001) %MON dynstat_vvel_mean            =   9.1871086522091E-04
(PID.TID 0000.0001) %MON dynstat_vvel_sd              =   8.4177144503157E-03
(PID.TID 0000.0001) %MON dynstat_vvel_del2            =   1.0599273917080E-04
(PID.TID 0000.0001) %MON dynstat_wvel_max             =   5.5011689232309E-05
(PID.TID 0000.0001) %MON dynstat_wvel_min             =  -1.4123674186201E-04
(PID.TID 0000.0001) %MON dynstat_wvel_mean            =  -2.4324059346959E-07
(PID.TID 0000.0001) %MON dynstat_wvel_sd              =   5.4711963302330E-06
(PID.TID 0000.0001) %MON dynstat_wvel_del2            =   1.4024434423328E-07
(PID.TID 0000.0001) %MON dynstat_theta_max            =   2.4159127654931E+01
(PID.TID 0000.0001) %MON dynstat_theta_min            =  -2.8958473911232E+00
(PID.TID 0000.0001) %MON dynstat_theta_mean           =   2.3216471325855E+00
(PID.TID 0000.0001) %MON dynstat_theta_sd             =   3.2104562948006E+00
(PID.TID 0000.0001) %MON dynstat_theta_del2           =   6.6462179563017E-03
(PID.TID 0000.0001) %MON dynstat_salt_max             =   3.6600804269800E+01
(PID.TID 0000.0001) %MON dynstat_salt_min             =   3.3084634962050E+01
(PID.TID 0000.0001) %MON dynstat_salt_mean            =   3.4483933732930E+01
(PID.TID 0000.0001) %MON dynstat_salt_sd              =   1.9644812823005E-01
(PID.TID 0000.0001) %MON dynstat_salt_del2            =   1.1588279159191E-03
(PID.TID 0000.0001) %MON forcing_qnet_max             =   6.8297718175252E+01
(PID.TID 0000.0001) %MON forcing_qnet_min             =  -2.1316845050388E+02
(PID.TID 0000.0001) %MON forcing_qnet_mean            =  -1.2118037261252E+02
(PID.TID 0000.0001) %MON forcing_qnet_sd              =   4.4762971498044E+01
(PID.TID 0000.0001) %MON forcing_qnet_del2            =   8.3501970055522E-01
(PID.TID 0000.0001) %MON forcing_qsw_max              =   0.0000000000000E+00
(PID.TID 0000.0001) %MON forcing_qsw_min              =   0.0000000000000E+00
(PID.TID 0000.0001) %MON forcing_qsw_mean             =   0.0000000000000E+00
(PID.TID 0000.0001) %MON forcing_qsw_sd               =   0.0000000000000E+00
(PID.TID 0000.0001) %MON forcing_qsw_del2             =   0.0000000000000E+00
(PID.TID 0000.0001) %MON forcing_empmr_max            =   2.5141471127199E-05
(PID.TID 0000.0001) %MON forcing_empmr_min            =  -3.9761445691511E-05
(PID.TID 0000.0001) %MON forcing_empmr_mean           =  -9.3236499820974E-06
(PID.TID 0000.0001) %MON forcing_empmr_sd             =   1.0249687273683E-05
(PID.TID 0000.0001) %MON forcing_empmr_del2           =   9.8755541425843E-08
(PID.TID 0000.0001) %MON forcing_fu_max               =   2.1190117957691E-01
(PID.TID 0000.0001) %MON forcing_fu_min               =  -9.0567501323918E-02
(PID.TID 0000.0001) %MON forcing_fu_mean              =   7.6097693709832E-02
(PID.TID 0000.0001) %MON forcing_fu_sd                =   7.1219270160388E-02
(PID.TID 0000.0001) %MON forcing_fu_del2              =   5.5135421180118E-04
(PID.TID 0000.0001) %MON forcing_fv_max               =   1.5115532210718E-01
(PID.TID 0000.0001) %MON forcing_fv_min               =  -7.6191426792906E-02
(PID.TID 0000.0001) %MON forcing_fv_mean              =  -1.9587650781155E-02
(PID.TID 0000.0001) %MON forcing_fv_sd                =   3.3562708643730E-02
(PID.TID 0000.0001) %MON forcing_fv_del2              =   3.7620846302041E-04
(PID.TID 0000.0001) %MON trAdv_CFL_u_max              =   1.7007541187944E-03
(PID.TID 0000.0001) %MON trAdv_CFL_v_max              =   3.8547130122733E-04
(PID.TID 0000.0001) %MON trAdv_CFL_w_max              =   1.3067066056204E-03
(PID.TID 0000.0001) %MON advcfl_uvel_max              =   7.0168276765194E-04
(PID.TID 0000.0001) %MON advcfl_vvel_max              =   3.7233301565388E-04
(PID.TID 0000.0001) %MON advcfl_wvel_max              =   3.4825497993373E-04
(PID.TID 0000.0001) %MON advcfl_W_hf_max              =   3.7386196375238E-04
(PID.TID 0000.0001) %MON pe_b_mean                    =   8.4595095666698E-04
(PID.TID 0000.0001) %MON ke_max                       =   9.2623335368969E-03
(PID.TID 0000.0001) %MON ke_mean                      =   1.6115085015035E-04
(PID.TID 0000.0001) %MON ke_vol                       =   1.2769337095763E+17
(PID.TID 0000.0001) %MON vort_r_min                   =  -4.7661421990079E-07
(PID.TID 0000.0001) %MON vort_r_max                   =   7.0353342459570E-07
(PID.TID 0000.0001) %MON vort_a_mean                  =  -1.0457492694176E-04
(PID.TID 0000.0001) %MON vort_a_sd                    =   2.1292585247350E-05
(PID.TID 0000.0001) %MON vort_p_mean                  =  -1.2574624490566E-04
(PID.TID 0000.0001) %MON vort_p_sd                    =   1.1183795716412E-04
(PID.TID 0000.0001) %MON surfExpan_theta_mean         =   1.6052765251318E-07
(PID.TID 0000.0001) %MON surfExpan_salt_mean          =   1.2806487316506E-07
(PID.TID 0000.0001) // =======================================================
(PID.TID 0000.0001) // End MONITOR dynamic field statistics
(PID.TID 0000.0001) // =======================================================
(PID.TID 0000.0001) // =======================================================
(PID.TID 0000.0001) // Begin OBCS MONITOR field statistics
(PID.TID 0000.0001) // =======================================================
(PID.TID 0000.0001) %MON obc_E_uVel_max               =   8.4217817005184E-02
(PID.TID 0000.0001) %MON obc_E_uVel_min               =  -6.0760128389423E-02
(PID.TID 0000.0001) %MON obc_E_uVel_mean              =   7.3663002159362E-03
(PID.TID 0000.0001) %MON obc_E_uVel_sd                =   1.4300337468866E-02
(PID.TID 0000.0001) %MON obc_E_uVel_Int               =   1.2629233461939E+08
(PID.TID 0000.0001) %MON obc_W_uVel_max               =   5.9707918217302E-02
(PID.TID 0000.0001) %MON obc_W_uVel_min               =  -2.5726567219762E-02
(PID.TID 0000.0001) %MON obc_W_uVel_mean              =   7.0232060631901E-03
(PID.TID 0000.0001) %MON obc_W_uVel_sd                =   1.1104249252234E-02
(PID.TID 0000.0001) %MON obc_W_uVel_Int               =   1.3125866952948E+08
(PID.TID 0000.0001) %MON obc_N_vVel_max               =   4.7463149097489E-02
(PID.TID 0000.0001) %MON obc_N_vVel_min               =  -7.0460203129591E-02
(PID.TID 0000.0001) %MON obc_N_vVel_mean              =   1.6504131914270E-04
(PID.TID 0000.0001) %MON obc_N_vVel_sd                =   6.4415290444657E-03
(PID.TID 0000.0001) %MON obc_N_vVel_Int               =   4.8247927840983E+06
(PID.TID 0000.0001) %MON obc_E_theta_max              =   1.9186332424482E+01
(PID.TID 0000.0001) %MON obc_E_theta_min              =  -1.6420624167141E+00
(PID.TID 0000.0001) %MON obc_E_theta_mean             =   1.9094766116496E+00
(PID.TID 0000.0001) %MON obc_E_theta_sd               =   2.9652746031638E+00
(PID.TID 0000.0001) %MON obc_W_theta_max              =   2.1406733903620E+01
(PID.TID 0000.0001) %MON obc_W_theta_min              =  -1.4417714288251E+00
(PID.TID 0000.0001) %MON obc_W_theta_mean             =   2.4654242342019E+00
(PID.TID 0000.0001) %MON obc_W_theta_sd               =   2.9592939589173E+00
(PID.TID 0000.0001) %MON obc_N_theta_max              =   2.3974811103609E+01
(PID.TID 0000.0001) %MON obc_N_theta_min              =  -6.3047586805705E-01
(PID.TID 0000.0001) %MON obc_N_theta_mean             =   4.8710428335354E+00
(PID.TID 0000.0001) %MON obc_N_theta_sd               =   4.7010388516944E+00
(PID.TID 0000.0001) // =======================================================
(PID.TID 0000.0001) // End OBCS MONITOR field statistics
(PID.TID 0000.0001) // =======================================================
(PID.TID 0000.0001) // =======================================================
(PID.TID 0000.0001) // Begin MONITOR ptracer field statistics
(PID.TID 0000.0001) // =======================================================
(PID.TID 0000.0001) %MON trcstat_ptracer01_max        =   2.3591387952203E+00
(PID.TID 0000.0001) %MON trcstat_ptracer01_min        =   1.9367683036875E+00
(PID.TID 0000.0001) %MON trcstat_ptracer01_mean       =   2.2425299638490E+00
(PID.TID 0000.0001) %MON trcstat_ptracer01_sd         =   7.5981947448739E-02
(PID.TID 0000.0001) %MON trcstat_ptracer01_del2       =   1.0693349767726E-04
(PID.TID 0000.0001) %MON trcstat_ptracer02_max        =   2.4116826493992E+00
(PID.TID 0000.0001) %MON trcstat_ptracer02_min        =   2.1899158618444E+00
(PID.TID 0000.0001) %MON trcstat_ptracer02_mean       =   2.3520448670214E+00
(PID.TID 0000.0001) %MON trcstat_ptracer02_sd         =   3.5091222595036E-02
(PID.TID 0000.0001) %MON trcstat_ptracer02_del2       =   8.0636142611761E-05
(PID.TID 0000.0001) %MON trcstat_ptracer03_max        =   2.7654633770857E-03
(PID.TID 0000.0001) %MON trcstat_ptracer03_min        =   4.7435822892400E-05
(PID.TID 0000.0001) %MON trcstat_ptracer03_mean       =   2.0556790795275E-03
(PID.TID 0000.0001) %MON trcstat_ptracer03_sd         =   5.0322807406975E-04
(PID.TID 0000.0001) %MON trcstat_ptracer03_del2       =   6.7075332309305E-07
(PID.TID 0000.0001) %MON trcstat_ptracer04_max        =   2.5669431065319E-04
(PID.TID 0000.0001) %MON trcstat_ptracer04_min        =  -7.4560274956505E-07
(PID.TID 0000.0001) %MON trcstat_ptracer04_mean       =   6.2010234095726E-06
(PID.TID 0000.0001) %MON trcstat_ptracer04_sd         =   2.6100203883324E-05
(PID.TID 0000.0001) %MON trcstat_ptracer04_del2       =   1.3471578455771E-07
(PID.TID 0000.0001) %MON trcstat_ptracer05_max        =   3.8358068204158E-01
(PID.TID 0000.0001) %MON trcstat_ptracer05_min        =   8.2346057721205E-02
(PID.TID 0000.0001) %MON trcstat_ptracer05_mean       =   2.1413261826326E-01
(PID.TID 0000.0001) %MON trcstat_ptracer05_sd         =   4.3053314889517E-02
(PID.TID 0000.0001) %MON trcstat_ptracer05_del2       =   1.1917223292027E-04
(PID.TID 0000.0001) // =======================================================
(PID.TID 0000.0001) // End MONITOR ptracers field statistics
(PID.TID 0000.0001) // =======================================================
 Computing Diagnostic #     23  ETAN         Counter:       1   Parms: SM      M1      
 Computing Diagnostic #     24  ETANSQ       Counter:       1   Parms: SM P    M1      
 Computing Diagnostic #     25  DETADT2      Counter:       1   Parms: SM      M1      
 Computing Diagnostic #     73  PHIBOT       Counter:       1   Parms: SM      M1      
 Computing Diagnostic #     74  PHIBOTSQ     Counter:       1   Parms: SM P    M1      
 Computing Diagnostic #    278  DICTFLX      Counter:       1   Parms: SM P    L1      
 Computing Diagnostic #    279  DICOFLX      Counter:       1   Parms: SM P    L1      
 Computing Diagnostic #    280  DICCFLX      Counter:       1   Parms: SM P    L1      
 Computing Diagnostic #    281  DICPCO2      Counter:       1   Parms: SM P    M1      
 Computing Diagnostic #    282  DICPHAV      Counter:       1   Parms: SM P    M1      
 Computing Diagnostic #     46  VVELMASS     Counter:       4   Parms: VVr     MR      
           Vector  Mate for  VVELMASS     Diagnostic #     45  UVELMASS exists 
 Computing Diagnostic #     45  UVELMASS     Counter:       4   Parms: UUr     MR      
           Vector  Mate for  UVELMASS     Diagnostic #     46  VVELMASS exists 
 Computing Diagnostic #     26  THETA        Counter:       4   Parms: SMR     MR      
 Computing Diagnostic #     27  SALT         Counter:       4   Parms: SMR     MR      
 Computing Diagnostic #    201  GM_PsiX      Counter:       4   Parms: UU      LR      
           Vector  Mate for  GM_PsiX      Diagnostic #    202  GM_PsiY  exists 
 Computing Diagnostic #    202  GM_PsiY      Counter:       4   Parms: VV      LR      
           Vector  Mate for  GM_PsiY      Diagnostic #    201  GM_PsiX  exists 
 Post-Processing Diag #     48  PhiVEL     Parms: SMR P   MR      
   from diag: UVELMASS (#    45) Cnt=       4 and diag: VVELMASS (#    46) Cnt=       4
 diag_cg2d (it=        5) a2dNorm,x2dNorm= 4.382025E-03 , 2.604976E+03 ; Criter= 1.00E-13
 diag_cg2d : k=   1 , it=   119   120 ; ini,min,last_Res= 4.6125666E+00 1.0050584E-13 6.2485201E-14
 diag_cg2d : k=   2 , it=   117   118 ; ini,min,last_Res= 3.4657122E+00 1.4080531E-13 8.1884105E-14
 diag_cg2d : k=   3 , it=   114   115 ; ini,min,last_Res= 1.9731792E+00 1.5216249E-13 9.6196542E-14
 diag_cg2d : k=   4 , it=   113   114 ; ini,min,last_Res= 2.1063013E+00 1.2847094E-13 6.6665981E-14
 diag_cg2d : k=   5 , it=   113   114 ; ini,min,last_Res= 2.7516533E+00 1.9034866E-13 9.8434766E-14
 diag_cg2d : k=   6 , it=   107   108 ; ini,min,last_Res= 1.9754274E+00 1.2948505E-13 7.0212082E-14
 diag_cg2d : k=   7 , it=   108   109 ; ini,min,last_Res= 2.4648351E+00 1.3047518E-13 6.5259015E-14
 diag_cg2d : k=   8 , it=   105   106 ; ini,min,last_Res= 2.0276233E+00 1.1828731E-13 6.5346109E-14
 diag_cg2d : k=   9 , it=   106   107 ; ini,min,last_Res= 2.0944582E+00 1.4280576E-13 8.1265786E-14
 diag_cg2d : k=  10 , it=   107   108 ; ini,min,last_Res= 1.9889362E+00 1.0818595E-13 6.1564019E-14
 diag_cg2d : k=  11 , it=   107   108 ; ini,min,last_Res= 2.2293538E+00 1.0996468E-13 6.5081134E-14
 diag_cg2d : k=  12 , it=   113   114 ; ini,min,last_Res= 2.2681833E+00 1.6817939E-13 9.4165657E-14
 diag_cg2d : k=  13 , it=    93    94 ; ini,min,last_Res= 2.3305307E+00 1.1618842E-13 4.8829994E-14
 diag_cg2d : k=  14 , it=    76    77 ; ini,min,last_Res= 1.9678070E+00 1.8310146E-13 9.7317210E-14
 diag_cg2d : k=  15 , it=    45    46 ; ini,min,last_Res= 1.7336484E+00 1.4247931E-13 4.5596602E-14
  get Post-Proc. Diag #     49  PsiVEL   from previous computation of Diag #     48
 Computing Diagnostic #     78  CONVADJ      Counter:       4   Parms: SMR     LR      
 Computing Diagnostic #     83  oceFWflx     Counter:       4   Parms: SM      U1      
 EXTERNAL_FIELDS_LOAD,         5 : iP,iLd,i0,i1=   12    1   12    1 ; Wght=  0.4982638889  0.5017361111
 DIC_FIELDS_LOAD,         5 : iP,iLd,i0,i1=   12    1   12    1 ; Wght=  0.4982638889  0.5017361111
 OBCS_FIELDS_LOAD,         6 : iP,iLd,i0,i1=   12    1   12    1 ; Wght=  0.4979166667  0.5020833333
 cg2d: Sum(rhs),rhsMax =   2.32255048885923E+02  7.56907486335941E+00
(PID.TID 0000.0001)      cg2d_init_res =   1.10492005463512E-02
(PID.TID 0000.0001)      cg2d_iters(min,last) =      -1      20
(PID.TID 0000.0001)      cg2d_last_res =   8.09764293063554E-14
(PID.TID 0000.0001) // =======================================================
(PID.TID 0000.0001) // Begin MONITOR dynamic field statistics
(PID.TID 0000.0001) // =======================================================
(PID.TID 0000.0001) %MON time_tsnumber                =                     6
(PID.TID 0000.0001) %MON time_secondsf                =   5.4000000000000E+03
(PID.TID 0000.0001) %MON dynstat_eta_max              =   4.3344117859485E-01
(PID.TID 0000.0001) %MON dynstat_eta_min              =  -1.4826488029045E+00
(PID.TID 0000.0001) %MON dynstat_eta_mean             =  -5.1766794762561E-01
(PID.TID 0000.0001) %MON dynstat_eta_sd               =   5.9995945247200E-01
(PID.TID 0000.0001) %MON dynstat_eta_del2             =   2.3498994492650E-03
(PID.TID 0000.0001) %MON dynstat_uvel_max             =   1.3052602191146E-01
(PID.TID 0000.0001) %MON dynstat_uvel_min             =  -6.0758540499955E-02
(PID.TID 0000.0001) %MON dynstat_uvel_mean            =   7.3929879262411E-03
(PID.TID 0000.0001) %MON dynstat_uvel_sd              =   1.4621716691726E-02
(PID.TID 0000.0001) %MON dynstat_uvel_del2            =   1.6189010452280E-04
(PID.TID 0000.0001) %MON dynstat_vvel_max             =   1.2933999217414E-01
(PID.TID 0000.0001) %MON dynstat_vvel_min             =  -8.8616290501644E-02
(PID.TID 0000.0001) %MON dynstat_vvel_mean            =   9.2688063563456E-04
(PID.TID 0000.0001) %MON dynstat_vvel_sd              =   8.4138056281738E-03
(PID.TID 0000.0001) %MON dynstat_vvel_del2            =   1.0589750571448E-04
(PID.TID 0000.0001) %MON dynstat_wvel_max             =   5.4910130860730E-05
(PID.TID 0000.0001) %MON dynstat_wvel_min             =  -1.4125626540105E-04
(PID.TID 0000.0001) %MON dynstat_wvel_mean            =  -2.4324051930070E-07
(PID.TID 0000.0001) %MON dynstat_wvel_sd              =   5.4810066028434E-06
(PID.TID 0000.0001) %MON dynstat_wvel_del2            =   1.4029729521690E-07
(PID.TID 0000.0001) %MON dynstat_theta_max            =   2.4159448186178E+01
(PID.TID 0000.0001) %MON dynstat_theta_min            =  -2.8958497401380E+00
(PID.TID 0000.0001) %MON dynstat_theta_mean           =   2.3216537518500E+00
(PID.TID 0000.0001) %MON dynstat_theta_sd             =   3.2104744620020E+00
(PID.TID 0000.0001) %MON dynstat_theta_del2           =   6.6461509902376E-03
(PID.TID 0000.0001) %MON dynstat_salt_max             =   3.6600807713882E+01
(PID.TID 0000.0001) %MON dynstat_salt_min             =   3.3084610858734E+01
(PID.TID 0000.0001) %MON dynstat_salt_mean            =   3.4483933748009E+01
(PID.TID 0000.0001) %MON dynstat_salt_sd              =   1.9644828871117E-01
(PID.TID 0000.0001) %MON dynstat_salt_del2            =   1.1588145492299E-03
(PID.TID 0000.0001) %MON forcing_qnet_max             =   6.8298459211985E+01
(PID.TID 0000.0001) %MON forcing_qnet_min             =  -2.1315956062741E+02
(PID.TID 0000.0001) %MON forcing_qnet_mean            =  -1.2117464562894E+02
(PID.TID 0000.0001) %MON forcing_qnet_sd              =   4.4759734969475E+01
(PID.TID 0000.0001) %MON forcing_qnet_del2            =   8.3504226680362E-01
(PID.TID 0000.0001) %MON forcing_qsw_max              =   0.0000000000000E+00
(PID.TID 0000.0001) %MON forcing_qsw_min              =   0.0000000000000E+00
(PID.TID 0000.0001) %MON forcing_qsw_mean             =   0.0000000000000E+00
(PID.TID 0000.0001) %MON forcing_qsw_sd               =   0.0000000000000E+00
(PID.TID 0000.0001) %MON forcing_qsw_del2             =   0.0000000000000E+00
(PID.TID 0000.0001) %MON forcing_empmr_max            =   2.5141471127199E-05
(PID.TID 0000.0001) %MON forcing_empmr_min            =  -3.9761445691511E-05
(PID.TID 0000.0001) %MON forcing_empmr_mean           =  -9.3236499820974E-06
(PID.TID 0000.0001) %MON forcing_empmr_sd             =   1.0249687273683E-05
(PID.TID 0000.0001) %MON forcing_empmr_del2           =   9.8755541425843E-08
(PID.TID 0000.0001) %MON forcing_fu_max               =   2.1190386715656E-01
(PID.TID 0000.0001) %MON forcing_fu_min               =  -9.0576174280917E-02
(PID.TID 0000.0001) %MON forcing_fu_mean              =   7.6095594774029E-02
(PID.TID 0000.0001) %MON forcing_fu_sd                =   7.1219988680866E-02
(PID.TID 0000.0001) %MON forcing_fu_del2              =   5.5137226196435E-04
(PID.TID 0000.0001) %MON forcing_fv_max               =   1.5114889022273E-01
(PID.TID 0000.0001) %MON forcing_fv_min               =  -7.6190797586201E-02
(PID.TID 0000.0001) %MON forcing_fv_mean              =  -1.9586420804288E-02
(PID.TID 0000.0001) %MON forcing_fv_sd                =   3.3562404981679E-02
(PID.TID 0000.0001) %MON forcing_fv_del2              =   3.7619558627475E-04
(PID.TID 0000.0001) %MON trAdv_CFL_u_max              =   1.7006143204766E-03
(PID.TID 0000.0001) %MON trAdv_CFL_v_max              =   3.8606084241074E-04
(PID.TID 0000.0001) %MON trAdv_CFL_w_max              =   1.3060112866912E-03
(PID.TID 0000.0001) %MON advcfl_uvel_max              =   7.0222846632162E-04
(PID.TID 0000.0001) %MON advcfl_vvel_max              =   3.7227683133857E-04
(PID.TID 0000.0001) %MON advcfl_wvel_max              =   3.4830312016697E-04
(PID.TID 0000.0001) %MON advcfl_W_hf_max              =   3.7391364370866E-04
(PID.TID 0000.0001) %MON pe_b_mean                    =   8.4604868369954E-04
(PID.TID 0000.0001) %MON ke_max                       =   9.2690536192676E-03
(PID.TID 0000.0001) %MON ke_mean                      =   1.6114094656801E-04
(PID.TID 0000.0001) %MON ke_vol                       =   1.2769337095763E+17
(PID.TID 0000.0001) %MON vort_r_min                   =  -4.7616230785312E-07
(PID.TID 0000.0001) %MON vort_r_max                   =   7.0321630249949E-07
(PID.TID 0000.0001) %MON vort_a_mean                  =  -1.0457492693102E-04
(PID.TID 0000.0001) %MON vort_a_sd                    =   2.1292589306018E-05
(PID.TID 0000.0001) %MON vort_p_mean                  =  -1.2574624489275E-04
(PID.TID 0000.0001) %MON vort_p_sd                    =   1.1183796072744E-04
(PID.TID 0000.0001) %MON surfExpan_theta_mean         =   2.6168863826077E-07
(PID.TID 0000.0001) %MON surfExpan_salt_mean          =   1.3653000920051E-07
(PID.TID 0000.0001) // =======================================================
(PID.TID 0000.0001) // End MONITOR dynamic field statistics
(PID.TID 0000.0001) // =======================================================
(PID.TID 0000.0001) // =======================================================
(PID.TID 0000.0001) // Begin OBCS MONITOR field statistics
(PID.TID 0000.0001) // =======================================================
(PID.TID 0000.0001) %MON obc_E_uVel_max               =   8.4215017159780E-02
(PID.TID 0000.0001) %MON obc_E_uVel_min               =  -6.0758540499955E-02
(PID.TID 0000.0001) %MON obc_E_uVel_mean              =   7.3662620341403E-03
(PID.TID 0000.0001) %MON obc_E_uVel_sd                =   1.4300350228146E-02
(PID.TID 0000.0001) %MON obc_E_uVel_Int               =   1.2629168000745E+08
(PID.TID 0000.0001) %MON obc_W_uVel_max               =   5.9708919019128E-02
(PID.TID 0000.0001) %MON obc_W_uVel_min               =  -2.5726616805575E-02
(PID.TID 0000.0001) %MON obc_W_uVel_mean              =   7.0231149300341E-03
(PID.TID 0000.0001) %MON obc_W_uVel_sd                =   1.1104331227320E-02
(PID.TID 0000.0001) %MON obc_W_uVel_Int               =   1.3125696631634E+08
(PID.TID 0000.0001) %MON obc_N_vVel_max               =   4.7462036406311E-02
(PID.TID 0000.0001) %MON obc_N_vVel_min               =  -7.0461278067281E-02
(PID.TID 0000.0001) %MON obc_N_vVel_mean              =   1.6500464831695E-04
(PID.TID 0000.0001) %MON obc_N_vVel_sd                =   6.4415000267363E-03
(PID.TID 0000.0001) %MON obc_N_vVel_Int               =   4.8237207547644E+06
(PID.TID 0000.0001) %MON obc_E_theta_max              =   1.9186779832840E+01
(PID.TID 0000.0001) %MON obc_E_theta_min              =  -1.6418821347257E+00
(PID.TID 0000.0001) %MON obc_E_theta_mean             =   1.9094763796180E+00
(PID.TID 0000.0001) %MON obc_E_theta_sd               =   2.9652844047892E+00
(PID.TID 0000.0001) %MON obc_W_theta_max              =   2.1407154552142E+01
(PID.TID 0000.0001) %MON obc_W_theta_min              =  -1.4417731416722E+00
(PID.TID 0000.0001) %MON obc_W_theta_mean             =   2.4654287599910E+00
(PID.TID 0000.0001) %MON obc_W_theta_sd               =   2.9593051752821E+00
(PID.TID 0000.0001) %MON obc_N_theta_max              =   2.3975246270498E+01
(PID.TID 0000.0001) %MON obc_N_theta_min              =  -6.3048633846144E-01
(PID.TID 0000.0001) %MON obc_N_theta_mean             =   4.8710472479665E+00
(PID.TID 0000.0001) %MON obc_N_theta_sd               =   4.7010571737629E+00
(PID.TID 0000.0001) // =======================================================
(PID.TID 0000.0001) // End OBCS MONITOR field statistics
(PID.TID 0000.0001) // =======================================================
(PID.TID 0000.0001) // =======================================================
(PID.TID 0000.0001) // Begin MONITOR ptracer field statistics
(PID.TID 0000.0001) // =======================================================
(PID.TID 0000.0001) %MON trcstat_ptracer01_max        =   2.3591388078592E+00
(PID.TID 0000.0001) %MON trcstat_ptracer01_min        =   1.9367679005213E+00
(PID.TID 0000.0001) %MON trcstat_ptracer01_mean       =   2.2425299357804E+00
(PID.TID 0000.0001) %MON trcstat_ptracer01_sd         =   7.5982014547872E-02
(PID.TID 0000.0001) %MON trcstat_ptracer01_del2       =   1.0693191606505E-04
(PID.TID 0000.0001) %MON trcstat_ptracer02_max        =   2.4116826633947E+00
(PID.TID 0000.0001) %MON trcstat_ptracer02_min        =   2.1899165783595E+00
(PID.TID 0000.0001) %MON trcstat_ptracer02_mean       =   2.3520448735205E+00
(PID.TID 0000.0001) %MON trcstat_ptracer02_sd         =   3.5091218603189E-02
(PID.TID 0000.0001) %MON trcstat_ptracer02_del2       =   8.0635997544720E-05
(PID.TID 0000.0001) %MON trcstat_ptracer03_max        =   2.7654634533564E-03
(PID.TID 0000.0001) %MON trcstat_ptracer03_min        =   4.7434880616209E-05
(PID.TID 0000.0001) %MON trcstat_ptracer03_mean       =   2.0556788840915E-03
(PID.TID 0000.0001) %MON trcstat_ptracer03_sd         =   5.0322841671815E-04
(PID.TID 0000.0001) %MON trcstat_ptracer03_del2       =   6.7074645030599E-07
(PID.TID 0000.0001) %MON trcstat_ptracer04_max        =   2.5670171903741E-04
(PID.TID 0000.0001) %MON trcstat_ptracer04_min        =  -7.4560289447730E-07
(PID.TID 0000.0001) %MON trcstat_ptracer04_mean       =   6.2011960901063E-06
(PID.TID 0000.0001) %MON trcstat_ptracer04_sd         =   2.6101043252725E-05
(PID.TID 0000.0001) %MON trcstat_ptracer04_del2       =   1.3471541508356E-07
(PID.TID 0000.0001) %MON trcstat_ptracer05_max        =   3.8358137541603E-01
(PID.TID 0000.0001) %MON trcstat_ptracer05_min        =   8.2346530660152E-02
(PID.TID 0000.0001) %MON trcstat_ptracer05_mean       =   2.1413258186469E-01
(PID.TID 0000.0001) %MON trcstat_ptracer05_sd         =   4.3053266496326E-02
(PID.TID 0000.0001) %MON trcstat_ptracer05_del2       =   1.1916805122290E-04
(PID.TID 0000.0001) // =======================================================
(PID.TID 0000.0001) // End MONITOR ptracers field statistics
(PID.TID 0000.0001) // =======================================================
 EXTERNAL_FIELDS_LOAD,         6 : iP,iLd,i0,i1=   12    1   12    1 ; Wght=  0.4979166667  0.5020833333
 DIC_FIELDS_LOAD,         6 : iP,iLd,i0,i1=   12    1   12    1 ; Wght=  0.4979166667  0.5020833333
 OBCS_FIELDS_LOAD,         7 : iP,iLd,i0,i1=   12    1   12    1 ; Wght=  0.4975694444  0.5024305556
 cg2d: Sum(rhs),rhsMax =   2.32213167287990E+02  7.57038688095630E+00
(PID.TID 0000.0001)      cg2d_init_res =   1.05829683547520E-02
(PID.TID 0000.0001)      cg2d_iters(min,last) =      -1      20
(PID.TID 0000.0001)      cg2d_last_res =   7.71860844053620E-14
(PID.TID 0000.0001) // =======================================================
(PID.TID 0000.0001) // Begin MONITOR dynamic field statistics
(PID.TID 0000.0001) // =======================================================
(PID.TID 0000.0001) %MON time_tsnumber                =                     7
(PID.TID 0000.0001) %MON time_secondsf                =   6.3000000000000E+03
(PID.TID 0000.0001) %MON dynstat_eta_max              =   4.3379168632523E-01
(PID.TID 0000.0001) %MON dynstat_eta_min              =  -1.4832377219385E+00
(PID.TID 0000.0001) %MON dynstat_eta_mean             =  -5.1766431467487E-01
(PID.TID 0000.0001) %MON dynstat_eta_sd               =   6.0003394470579E-01
(PID.TID 0000.0001) %MON dynstat_eta_del2             =   2.3490663665705E-03
(PID.TID 0000.0001) %MON dynstat_uvel_max             =   1.3064626879265E-01
(PID.TID 0000.0001) %MON dynstat_uvel_min             =  -6.0756952610488E-02
(PID.TID 0000.0001) %MON dynstat_uvel_mean            =   7.4008459497242E-03
(PID.TID 0000.0001) %MON dynstat_uvel_sd              =   1.4619035667076E-02
(PID.TID 0000.0001) %MON dynstat_uvel_del2            =   1.6179571717148E-04
(PID.TID 0000.0001) %MON dynstat_vvel_max             =   1.2933037346605E-01
(PID.TID 0000.0001) %MON dynstat_vvel_min             =  -8.8608412265058E-02
(PID.TID 0000.0001) %MON dynstat_vvel_mean            =   9.3521129581133E-04
(PID.TID 0000.0001) %MON dynstat_vvel_sd              =   8.4100114413935E-03
(PID.TID 0000.0001) %MON dynstat_vvel_del2            =   1.0580824294029E-04
(PID.TID 0000.0001) %MON dynstat_wvel_max             =   5.4773939065383E-05
(PID.TID 0000.0001) %MON dynstat_wvel_min             =  -1.4131881849781E-04
(PID.TID 0000.0001) %MON dynstat_wvel_mean            =  -2.4324044513181E-07
(PID.TID 0000.0001) %MON dynstat_wvel_sd              =   5.4911165779962E-06
(PID.TID 0000.0001) %MON dynstat_wvel_del2            =   1.4040533063439E-07
(PID.TID 0000.0001) %MON dynstat_theta_max            =   2.4159772127544E+01
(PID.TID 0000.0001) %MON dynstat_theta_min            =  -2.8958521036229E+00
(PID.TID 0000.0001) %MON dynstat_theta_mean           =   2.3216603444720E+00
(PID.TID 0000.0001) %MON dynstat_theta_sd             =   3.2104925515650E+00
(PID.TID 0000.0001) %MON dynstat_theta_del2           =   6.6460828959533E-03
(PID.TID 0000.0001) %MON dynstat_salt_max             =   3.6600811051885E+01
(PID.TID 0000.0001) %MON dynstat_salt_min             =   3.3084586700893E+01
(PID.TID 0000.0001) %MON dynstat_salt_mean            =   3.4483933761315E+01
(PID.TID 0000.0001) %MON dynstat_salt_sd              =   1.9644844074463E-01
(PID.TID 0000.0001) %MON dynstat_salt_del2            =   1.1588009503878E-03
(PID.TID 0000.0001) %MON forcing_qnet_max             =   6.8299200248718E+01
(PID.TID 0000.0001) %MON forcing_qnet_min             =  -2.1315067075094E+02
(PID.TID 0000.0001) %MON forcing_qnet_mean            =  -1.2116891864536E+02
(PID.TID 0000.0001) %MON forcing_qnet_sd              =   4.4756499951265E+01
(PID.TID 0000.0001) %MON forcing_qnet_del2            =   8.3506485475816E-01
(PID.TID 0000.0001) %MON forcing_qsw_max              =   0.0000000000000E+00
(PID.TID 0000.0001) %MON forcing_qsw_min              =   0.0000000000000E+00
(PID.TID 0000.0001) %MON forcing_qsw_mean             =   0.0000000000000E+00
(PID.TID 0000.0001) %MON forcing_qsw_sd               =   0.0000000000000E+00
(PID.TID 0000.0001) %MON forcing_qsw_del2             =   0.0000000000000E+00
(PID.TID 0000.0001) %MON forcing_empmr_max            =   2.5141471127199E-05
(PID.TID 0000.0001) %MON forcing_empmr_min            =  -3.9761445691511E-05
(PID.TID 0000.0001) %MON forcing_empmr_mean           =  -9.3236499820974E-06
(PID.TID 0000.0001) %MON forcing_empmr_sd             =   1.0249687273683E-05
(PID.TID 0000.0001) %MON forcing_empmr_del2           =   9.8755541425843E-08
(PID.TID 0000.0001) %MON forcing_fu_max               =   2.1190655473620E-01
(PID.TID 0000.0001) %MON forcing_fu_min               =  -9.0584847237915E-02
(PID.TID 0000.0001) %MON forcing_fu_mean              =   7.6093495838227E-02
(PID.TID 0000.0001) %MON forcing_fu_sd                =   7.1220707540326E-02
(PID.TID 0000.0001) %MON forcing_fu_del2              =   5.5139033162566E-04
(PID.TID 0000.0001) %MON forcing_fv_max               =   1.5114245833829E-01
(PID.TID 0000.0001) %MON forcing_fv_min               =  -7.6190168379496E-02
(PID.TID 0000.0001) %MON forcing_fv_mean              =  -1.9585190827421E-02
(PID.TID 0000.0001) %MON forcing_fv_sd                =   3.3562101630746E-02
(PID.TID 0000.0001) %MON forcing_fv_del2              =   3.7618272535761E-04
(PID.TID 0000.0001) %MON trAdv_CFL_u_max              =   1.7004975686191E-03
(PID.TID 0000.0001) %MON trAdv_CFL_v_max              =   3.8665694271725E-04
(PID.TID 0000.0001) %MON trAdv_CFL_w_max              =   1.3053328734077E-03
(PID.TID 0000.0001) %MON advcfl_uvel_max              =   7.0287539313147E-04
(PID.TID 0000.0001) %MON advcfl_vvel_max              =   3.7224914599463E-04
(PID.TID 0000.0001) %MON advcfl_wvel_max              =   3.4845736067952E-04
(PID.TID 0000.0001) %MON advcfl_W_hf_max              =   3.7407922543537E-04
(PID.TID 0000.0001) %MON pe_b_mean                    =   8.4616405648318E-04
(PID.TID 0000.0001) %MON ke_max                       =   9.2787010354819E-03
(PID.TID 0000.0001) %MON ke_mean                      =   1.6113618260435E-04
(PID.TID 0000.0001) %MON ke_vol                       =   1.2769337095763E+17
(PID.TID 0000.0001) %MON vort_r_min                   =  -4.7572765864136E-07
(PID.TID 0000.0001) %MON vort_r_max                   =   7.0294129115885E-07
(PID.TID 0000.0001) %MON vort_a_mean                  =  -1.0457492692029E-04
(PID.TID 0000.0001) %MON vort_a_sd                    =   2.1292593336856E-05
(PID.TID 0000.0001) %MON vort_p_mean                  =  -1.2574624487985E-04
(PID.TID 0000.0001) %MON vort_p_sd                    =   1.1183796574762E-04
(PID.TID 0000.0001) %MON surfExpan_theta_mean         =   3.6821163658973E-07
(PID.TID 0000.0001) %MON surfExpan_salt_mean          =   1.4264380722486E-07
(PID.TID 0000.0001) // =======================================================
(PID.TID 0000.0001) // End MONITOR dynamic field statistics
(PID.TID 0000.0001) // =======================================================
(PID.TID 0000.0001) // =======================================================
(PID.TID 0000.0001) // Begin OBCS MONITOR field statistics
(PID.TID 0000.0001) // =======================================================
(PID.TID 0000.0001) %MON obc_E_uVel_max               =   8.4212217314376E-02
(PID.TID 0000.0001) %MON obc_E_uVel_min               =  -6.0756952610488E-02
(PID.TID 0000.0001) %MON obc_E_uVel_mean              =   7.3662238523445E-03
(PID.TID 0000.0001) %MON obc_E_uVel_sd                =   1.4300362992592E-02
(PID.TID 0000.0001) %MON obc_E_uVel_Int               =   1.2629102539550E+08
(PID.TID 0000.0001) %MON obc_W_uVel_max               =   5.9709919820954E-02
(PID.TID 0000.0001) %MON obc_W_uVel_min               =  -2.5726666391387E-02
(PID.TID 0000.0001) %MON obc_W_uVel_mean              =   7.0230237968781E-03
(PID.TID 0000.0001) %MON obc_W_uVel_sd                =   1.1104413208052E-02
(PID.TID 0000.0001) %MON obc_W_uVel_Int               =   1.3125526310321E+08
(PID.TID 0000.0001) %MON obc_N_vVel_max               =   4.7460923715132E-02
(PID.TID 0000.0001) %MON obc_N_vVel_min               =  -7.0462353004970E-02
(PID.TID 0000.0001) %MON obc_N_vVel_mean              =   1.6496797749121E-04
(PID.TID 0000.0001) %MON obc_N_vVel_sd                =   6.4414710161743E-03
(PID.TID 0000.0001) %MON obc_N_vVel_Int               =   4.8226487254305E+06
(PID.TID 0000.0001) %MON obc_E_theta_max              =   1.9187227241198E+01
(PID.TID 0000.0001) %MON obc_E_theta_min              =  -1.6417018527372E+00
(PID.TID 0000.0001) %MON obc_E_theta_mean             =   1.9094761475865E+00
(PID.TID 0000.0001) %MON obc_E_theta_sd               =   2.9652942070231E+00
(PID.TID 0000.0001) %MON obc_W_theta_max              =   2.1407575200664E+01
(PID.TID 0000.0001) %MON obc_W_theta_min              =  -1.4417748545193E+00
(PID.TID 0000.0001) %MON obc_W_theta_mean             =   2.4654332857802E+00
(PID.TID 0000.0001) %MON obc_W_theta_sd               =   2.9593163920499E+00
(PID.TID 0000.0001) %MON obc_N_theta_max              =   2.3975681437386E+01
(PID.TID 0000.0001) %MON obc_N_theta_min              =  -6.3049680886583E-01
(PID.TID 0000.0001) %MON obc_N_theta_mean             =   4.8710516623976E+00
(PID.TID 0000.0001) %MON obc_N_theta_sd               =   4.7010754962403E+00
(PID.TID 0000.0001) // =======================================================
(PID.TID 0000.0001) // End OBCS MONITOR field statistics
(PID.TID 0000.0001) // =======================================================
(PID.TID 0000.0001) // =======================================================
(PID.TID 0000.0001) // Begin MONITOR ptracer field statistics
(PID.TID 0000.0001) // =======================================================
(PID.TID 0000.0001) %MON trcstat_ptracer01_max        =   2.3591388201677E+00
(PID.TID 0000.0001) %MON trcstat_ptracer01_min        =   1.9367674973784E+00
(PID.TID 0000.0001) %MON trcstat_ptracer01_mean       =   2.2425299078281E+00
(PID.TID 0000.0001) %MON trcstat_ptracer01_sd         =   7.5982081504173E-02
(PID.TID 0000.0001) %MON trcstat_ptracer01_del2       =   1.0693032563404E-04
(PID.TID 0000.0001) %MON trcstat_ptracer02_max        =   2.4116826775104E+00
(PID.TID 0000.0001) %MON trcstat_ptracer02_min        =   2.1899172966349E+00
(PID.TID 0000.0001) %MON trcstat_ptracer02_mean       =   2.3520448798953E+00
(PID.TID 0000.0001) %MON trcstat_ptracer02_sd         =   3.5091214629857E-02
(PID.TID 0000.0001) %MON trcstat_ptracer02_del2       =   8.0635849447252E-05
(PID.TID 0000.0001) %MON trcstat_ptracer03_max        =   2.7654635276452E-03
(PID.TID 0000.0001) %MON trcstat_ptracer03_min        =   4.7433938666120E-05
(PID.TID 0000.0001) %MON trcstat_ptracer03_mean       =   2.0556786901338E-03
(PID.TID 0000.0001) %MON trcstat_ptracer03_sd         =   5.0322875634557E-04
(PID.TID 0000.0001) %MON trcstat_ptracer03_del2       =   6.7073954757575E-07
(PID.TID 0000.0001) %MON trcstat_ptracer04_max        =   2.5670912610871E-04
(PID.TID 0000.0001) %MON trcstat_ptracer04_min        =  -7.4560303785861E-07
(PID.TID 0000.0001) %MON trcstat_ptracer04_mean       =   6.2013687931227E-06
(PID.TID 0000.0001) %MON trcstat_ptracer04_sd         =   2.6101882309232E-05
(PID.TID 0000.0001) %MON trcstat_ptracer04_del2       =   1.3471499622570E-07
(PID.TID 0000.0001) %MON trcstat_ptracer05_max        =   3.8358204365117E-01
(PID.TID 0000.0001) %MON trcstat_ptracer05_min        =   8.2346887393670E-02
(PID.TID 0000.0001) %MON trcstat_ptracer05_mean       =   2.1413254560111E-01
(PID.TID 0000.0001) %MON trcstat_ptracer05_sd         =   4.3053218219837E-02
(PID.TID 0000.0001) %MON trcstat_ptracer05_del2       =   1.1916385761224E-04
(PID.TID 0000.0001) // =======================================================
(PID.TID 0000.0001) // End MONITOR ptracers field statistics
(PID.TID 0000.0001) // =======================================================
 EXTERNAL_FIELDS_LOAD,         7 : iP,iLd,i0,i1=   12    1   12    1 ; Wght=  0.4975694444  0.5024305556
 DIC_FIELDS_LOAD,         7 : iP,iLd,i0,i1=   12    1   12    1 ; Wght=  0.4975694444  0.5024305556
 OBCS_FIELDS_LOAD,         8 : iP,iLd,i0,i1=   12    1   12    1 ; Wght=  0.4972222222  0.5027777778
 cg2d: Sum(rhs),rhsMax =   2.32146094598246E+02  7.57252099818769E+00
(PID.TID 0000.0001)      cg2d_init_res =   1.02561223672929E-02
(PID.TID 0000.0001)      cg2d_iters(min,last) =      -1      20
(PID.TID 0000.0001)      cg2d_last_res =   7.04835358796040E-14
(PID.TID 0000.0001) // =======================================================
(PID.TID 0000.0001) // Begin MONITOR dynamic field statistics
(PID.TID 0000.0001) // =======================================================
(PID.TID 0000.0001) %MON time_tsnumber                =                     8
(PID.TID 0000.0001) %MON time_secondsf                =   7.2000000000000E+03
(PID.TID 0000.0001) %MON dynstat_eta_max              =   4.3391609466470E-01
(PID.TID 0000.0001) %MON dynstat_eta_min              =  -1.4839412123592E+00
(PID.TID 0000.0001) %MON dynstat_eta_mean             =  -5.1766068112300E-01
(PID.TID 0000.0001) %MON dynstat_eta_sd               =   6.0012036707983E-01
(PID.TID 0000.0001) %MON dynstat_eta_del2             =   2.3485904145220E-03
(PID.TID 0000.0001) %MON dynstat_uvel_max             =   1.3078451950985E-01
(PID.TID 0000.0001) %MON dynstat_uvel_min             =  -6.0755364721020E-02
(PID.TID 0000.0001) %MON dynstat_uvel_mean            =   7.4084165087380E-03
(PID.TID 0000.0001) %MON dynstat_uvel_sd              =   1.4616751511697E-02
(PID.TID 0000.0001) %MON dynstat_uvel_del2            =   1.6170569000456E-04
(PID.TID 0000.0001) %MON dynstat_vvel_max             =   1.2933087173683E-01
(PID.TID 0000.0001) %MON dynstat_vvel_min             =  -8.8600628648117E-02
(PID.TID 0000.0001) %MON dynstat_vvel_mean            =   9.4350076861733E-04
(PID.TID 0000.0001) %MON dynstat_vvel_sd              =   8.4063583953970E-03
(PID.TID 0000.0001) %MON dynstat_vvel_del2            =   1.0572530174638E-04
(PID.TID 0000.0001) %MON dynstat_wvel_max             =   5.4611039046872E-05
(PID.TID 0000.0001) %MON dynstat_wvel_min             =  -1.4143477181606E-04
(PID.TID 0000.0001) %MON dynstat_wvel_mean            =  -2.4324037096292E-07
(PID.TID 0000.0001) %MON dynstat_wvel_sd              =   5.5013137424456E-06
(PID.TID 0000.0001) %MON dynstat_wvel_del2            =   1.4054053270501E-07
(PID.TID 0000.0001) %MON dynstat_theta_max            =   2.4160100031337E+01
(PID.TID 0000.0001) %MON dynstat_theta_min            =  -2.8958544974501E+00
(PID.TID 0000.0001) %MON dynstat_theta_mean           =   2.3216669097376E+00
(PID.TID 0000.0001) %MON dynstat_theta_sd             =   3.2105105719265E+00
(PID.TID 0000.0001) %MON dynstat_theta_del2           =   6.6460140175391E-03
(PID.TID 0000.0001) %MON dynstat_salt_max             =   3.6600814354328E+01
(PID.TID 0000.0001) %MON dynstat_salt_min             =   3.3084562472966E+01
(PID.TID 0000.0001) %MON dynstat_salt_mean            =   3.4483933773459E+01
(PID.TID 0000.0001) %MON dynstat_salt_sd              =   1.9644858763590E-01
(PID.TID 0000.0001) %MON dynstat_salt_del2            =   1.1587871664171E-03
(PID.TID 0000.0001) %MON forcing_qnet_max             =   6.8299941285451E+01
(PID.TID 0000.0001) %MON forcing_qnet_min             =  -2.1314178087446E+02
(PID.TID 0000.0001) %MON forcing_qnet_mean            =  -1.2116319166178E+02
(PID.TID 0000.0001) %MON forcing_qnet_sd              =   4.4753266443741E+01
(PID.TID 0000.0001) %MON forcing_qnet_del2            =   8.3508746441707E-01
(PID.TID 0000.0001) %MON forcing_qsw_max              =   0.0000000000000E+00
(PID.TID 0000.0001) %MON forcing_qsw_min              =   0.0000000000000E+00
(PID.TID 0000.0001) %MON forcing_qsw_mean             =   0.0000000000000E+00
(PID.TID 0000.0001) %MON forcing_qsw_sd               =   0.0000000000000E+00
(PID.TID 0000.0001) %MON forcing_qsw_del2             =   0.0000000000000E+00
(PID.TID 0000.0001) %MON forcing_empmr_max            =   2.5141471127199E-05
(PID.TID 0000.0001) %MON forcing_empmr_min            =  -3.9761445691511E-05
(PID.TID 0000.0001) %MON forcing_empmr_mean           =  -9.3236499820974E-06
(PID.TID 0000.0001) %MON forcing_empmr_sd             =   1.0249687273683E-05
(PID.TID 0000.0001) %MON forcing_empmr_del2           =   9.8755541425843E-08
(PID.TID 0000.0001) %MON forcing_fu_max               =   2.1190924231584E-01
(PID.TID 0000.0001) %MON forcing_fu_min               =  -9.0593520194913E-02
(PID.TID 0000.0001) %MON forcing_fu_mean              =   7.6091396902425E-02
(PID.TID 0000.0001) %MON forcing_fu_sd                =   7.1221426738756E-02
(PID.TID 0000.0001) %MON forcing_fu_del2              =   5.5140842078320E-04
(PID.TID 0000.0001) %MON forcing_fv_max               =   1.5113602645385E-01
(PID.TID 0000.0001) %MON forcing_fv_min               =  -7.6189539172790E-02
(PID.TID 0000.0001) %MON forcing_fv_mean              =  -1.9583960850555E-02
(PID.TID 0000.0001) %MON forcing_fv_sd                =   3.3561798590940E-02
(PID.TID 0000.0001) %MON forcing_fv_del2              =   3.7616988027061E-04
(PID.TID 0000.0001) %MON trAdv_CFL_u_max              =   1.7003979957980E-03
(PID.TID 0000.0001) %MON trAdv_CFL_v_max              =   3.8726115381853E-04
(PID.TID 0000.0001) %MON trAdv_CFL_w_max              =   1.3046715007787E-03
(PID.TID 0000.0001) %MON advcfl_uvel_max              =   7.0361918036782E-04
(PID.TID 0000.0001) %MON advcfl_vvel_max              =   3.7225058015790E-04
(PID.TID 0000.0001) %MON advcfl_wvel_max              =   3.4874327297111E-04
(PID.TID 0000.0001) %MON advcfl_W_hf_max              =   3.7438616068958E-04
(PID.TID 0000.0001) %MON pe_b_mean                    =   8.4629873610387E-04
(PID.TID 0000.0001) %MON ke_max                       =   9.2912124879383E-03
(PID.TID 0000.0001) %MON ke_mean                      =   1.6113623723380E-04
(PID.TID 0000.0001) %MON ke_vol                       =   1.2769337095763E+17
(PID.TID 0000.0001) %MON vort_r_min                   =  -4.7532976369963E-07
(PID.TID 0000.0001) %MON vort_r_max                   =   7.0270386394669E-07
(PID.TID 0000.0001) %MON vort_a_mean                  =  -1.0457492690956E-04
(PID.TID 0000.0001) %MON vort_a_sd                    =   2.1292597332959E-05
(PID.TID 0000.0001) %MON vort_p_mean                  =  -1.2574624486695E-04
(PID.TID 0000.0001) %MON vort_p_sd                    =   1.1183797192176E-04
(PID.TID 0000.0001) %MON surfExpan_theta_mean         =   4.7608526479045E-07
(PID.TID 0000.0001) %MON surfExpan_salt_mean          =   1.4627666046512E-07
(PID.TID 0000.0001) // =======================================================
(PID.TID 0000.0001) // End MONITOR dynamic field statistics
(PID.TID 0000.0001) // =======================================================
(PID.TID 0000.0001) // =======================================================
(PID.TID 0000.0001) // Begin OBCS MONITOR field statistics
(PID.TID 0000.0001) // =======================================================
(PID.TID 0000.0001) %MON obc_E_uVel_max               =   8.4209417468972E-02
(PID.TID 0000.0001) %MON obc_E_uVel_min               =  -6.0755364721020E-02
(PID.TID 0000.0001) %MON obc_E_uVel_mean              =   7.3661856705486E-03
(PID.TID 0000.0001) %MON obc_E_uVel_sd                =   1.4300375762204E-02
(PID.TID 0000.0001) %MON obc_E_uVel_Int               =   1.2629037078355E+08
(PID.TID 0000.0001) %MON obc_W_uVel_max               =   5.9710920622779E-02
(PID.TID 0000.0001) %MON obc_W_uVel_min               =  -2.5726715977200E-02
(PID.TID 0000.0001) %MON obc_W_uVel_mean              =   7.0229326637221E-03
(PID.TID 0000.0001) %MON obc_W_uVel_sd                =   1.1104495194430E-02
(PID.TID 0000.0001) %MON obc_W_uVel_Int               =   1.3125355989008E+08
(PID.TID 0000.0001) %MON obc_N_vVel_max               =   4.7459811023954E-02
(PID.TID 0000.0001) %MON obc_N_vVel_min               =  -7.0463427942660E-02
(PID.TID 0000.0001) %MON obc_N_vVel_mean              =   1.6493130666547E-04
(PID.TID 0000.0001) %MON obc_N_vVel_sd                =   6.4414420127797E-03
(PID.TID 0000.0001) %MON obc_N_vVel_Int               =   4.8215766960965E+06
(PID.TID 0000.0001) %MON obc_E_theta_max              =   1.9187674649556E+01
(PID.TID 0000.0001) %MON obc_E_theta_min              =  -1.6415215707488E+00
(PID.TID 0000.0001) %MON obc_E_theta_mean             =   1.9094759155549E+00
(PID.TID 0000.0001) %MON obc_E_theta_sd               =   2.9653040098655E+00
(PID.TID 0000.0001) %MON obc_W_theta_max              =   2.1407995849186E+01
(PID.TID 0000.0001) %MON obc_W_theta_min              =  -1.4417765673664E+00
(PID.TID 0000.0001) %MON obc_W_theta_mean             =   2.4654378115694E+00
(PID.TID 0000.0001) %MON obc_W_theta_sd               =   2.9593276092207E+00
(PID.TID 0000.0001) %MON obc_N_theta_max              =   2.3976116604275E+01
(PID.TID 0000.0001) %MON obc_N_theta_min              =  -6.3050727927023E-01
(PID.TID 0000.0001) %MON obc_N_theta_mean             =   4.8710560768287E+00
(PID.TID 0000.0001) %MON obc_N_theta_sd               =   4.7010938191265E+00
(PID.TID 0000.0001) // =======================================================
(PID.TID 0000.0001) // End OBCS MONITOR field statistics
(PID.TID 0000.0001) // =======================================================
(PID.TID 0000.0001) // =======================================================
(PID.TID 0000.0001) // Begin MONITOR ptracer field statistics
(PID.TID 0000.0001) // =======================================================
(PID.TID 0000.0001) %MON trcstat_ptracer01_max        =   2.3591388321713E+00
(PID.TID 0000.0001) %MON trcstat_ptracer01_min        =   1.9367670942554E+00
(PID.TID 0000.0001) %MON trcstat_ptracer01_mean       =   2.2425298800293E+00
(PID.TID 0000.0001) %MON trcstat_ptracer01_sd         =   7.5982148198316E-02
(PID.TID 0000.0001) %MON trcstat_ptracer01_del2       =   1.0692873555473E-04
(PID.TID 0000.0001) %MON trcstat_ptracer02_max        =   2.4116826914326E+00
(PID.TID 0000.0001) %MON trcstat_ptracer02_min        =   2.1899180160499E+00
(PID.TID 0000.0001) %MON trcstat_ptracer02_mean       =   2.3520448861812E+00
(PID.TID 0000.0001) %MON trcstat_ptracer02_sd         =   3.5091210624400E-02
(PID.TID 0000.0001) %MON trcstat_ptracer02_del2       =   8.0635697135607E-05
(PID.TID 0000.0001) %MON trcstat_ptracer03_max        =   2.7654636001056E-03
(PID.TID 0000.0001) %MON trcstat_ptracer03_min        =   4.7432997034331E-05
(PID.TID 0000.0001) %MON trcstat_ptracer03_mean       =   2.0556784979220E-03
(PID.TID 0000.0001) %MON trcstat_ptracer03_sd         =   5.0322909226308E-04
(PID.TID 0000.0001) %MON trcstat_ptracer03_del2       =   6.7073264691792E-07
(PID.TID 0000.0001) %MON trcstat_ptracer04_max        =   2.5671653202598E-04
(PID.TID 0000.0001) %MON trcstat_ptracer04_min        =  -7.4560317705200E-07
(PID.TID 0000.0001) %MON trcstat_ptracer04_mean       =   6.2015414687240E-06
(PID.TID 0000.0001) %MON trcstat_ptracer04_sd         =   2.6102720800737E-05
(PID.TID 0000.0001) %MON trcstat_ptracer04_del2       =   1.3471454516337E-07
(PID.TID 0000.0001) %MON trcstat_ptracer05_max        =   3.8358272171814E-01
(PID.TID 0000.0001) %MON trcstat_ptracer05_min        =   8.2347146398425E-02
(PID.TID 0000.0001) %MON trcstat_ptracer05_mean       =   2.1413250948110E-01
(PID.TID 0000.0001) %MON trcstat_ptracer05_sd         =   4.3053170069157E-02
(PID.TID 0000.0001) %MON trcstat_ptracer05_del2       =   1.1915967761237E-04
(PID.TID 0000.0001) // =======================================================
(PID.TID 0000.0001) // End MONITOR ptracers field statistics
(PID.TID 0000.0001) // =======================================================
 EXTERNAL_FIELDS_LOAD,         8 : iP,iLd,i0,i1=   12    1   12    1 ; Wght=  0.4972222222  0.5027777778
 DIC_FIELDS_LOAD,         8 : iP,iLd,i0,i1=   12    1   12    1 ; Wght=  0.4972222222  0.5027777778
 OBCS_FIELDS_LOAD,         9 : iP,iLd,i0,i1=   12    1   12    1 ; Wght=  0.4968750000  0.5031250000
 cg2d: Sum(rhs),rhsMax =   2.32053789538125E+02  7.57547997048529E+00
(PID.TID 0000.0001)      cg2d_init_res =   9.87357679919720E-03
(PID.TID 0000.0001)      cg2d_iters(min,last) =      -1      20
(PID.TID 0000.0001)      cg2d_last_res =   6.33406593972866E-14
(PID.TID 0000.0001) // =======================================================
(PID.TID 0000.0001) // Begin MONITOR dynamic field statistics
(PID.TID 0000.0001) // =======================================================
(PID.TID 0000.0001) %MON time_tsnumber                =                     9
(PID.TID 0000.0001) %MON time_secondsf                =   8.1000000000000E+03
(PID.TID 0000.0001) %MON dynstat_eta_max              =   4.3387752308065E-01
(PID.TID 0000.0001) %MON dynstat_eta_min              =  -1.4847130406706E+00
(PID.TID 0000.0001) %MON dynstat_eta_mean             =  -5.1765704697000E-01
(PID.TID 0000.0001) %MON dynstat_eta_sd               =   6.0021951083940E-01
(PID.TID 0000.0001) %MON dynstat_eta_del2             =   2.3483836167050E-03
(PID.TID 0000.0001) %MON dynstat_uvel_max             =   1.3094008865759E-01
(PID.TID 0000.0001) %MON dynstat_uvel_min             =  -6.0753776831552E-02
(PID.TID 0000.0001) %MON dynstat_uvel_mean            =   7.4156751640300E-03
(PID.TID 0000.0001) %MON dynstat_uvel_sd              =   1.4614828396299E-02
(PID.TID 0000.0001) %MON dynstat_uvel_del2            =   1.6162035433211E-04
(PID.TID 0000.0001) %MON dynstat_vvel_max             =   1.2934174291028E-01
(PID.TID 0000.0001) %MON dynstat_vvel_min             =  -8.8594289216692E-02
(PID.TID 0000.0001) %MON dynstat_vvel_mean            =   9.5158576959670E-04
(PID.TID 0000.0001) %MON dynstat_vvel_sd              =   8.4028939401623E-03
(PID.TID 0000.0001) %MON dynstat_vvel_del2            =   1.0564852619090E-04
(PID.TID 0000.0001) %MON dynstat_wvel_max             =   5.4436835385799E-05
(PID.TID 0000.0001) %MON dynstat_wvel_min             =  -1.4160707590804E-04
(PID.TID 0000.0001) %MON dynstat_wvel_mean            =  -2.4324029679403E-07
(PID.TID 0000.0001) %MON dynstat_wvel_sd              =   5.5112661003114E-06
(PID.TID 0000.0001) %MON dynstat_wvel_del2            =   1.4069023398092E-07
(PID.TID 0000.0001) %MON dynstat_theta_max            =   2.4160430637991E+01
(PID.TID 0000.0001) %MON dynstat_theta_min            =  -2.8958569428482E+00
(PID.TID 0000.0001) %MON dynstat_theta_mean           =   2.3216734479089E+00
(PID.TID 0000.0001) %MON dynstat_theta_sd             =   3.2105285321852E+00
(PID.TID 0000.0001) %MON dynstat_theta_del2           =   6.6459447664100E-03
(PID.TID 0000.0001) %MON dynstat_salt_max             =   3.6600817653783E+01
(PID.TID 0000.0001) %MON dynstat_salt_min             =   3.3084538154159E+01
(PID.TID 0000.0001) %MON dynstat_salt_mean            =   3.4483933785073E+01
(PID.TID 0000.0001) %MON dynstat_salt_sd              =   1.9644873299897E-01
(PID.TID 0000.0001) %MON dynstat_salt_del2            =   1.1587732531008E-03
(PID.TID 0000.0001) %MON forcing_qnet_max             =   6.8300682322184E+01
(PID.TID 0000.0001) %MON forcing_qnet_min             =  -2.1313289099799E+02
(PID.TID 0000.0001) %MON forcing_qnet_mean            =  -1.2115746467820E+02
(PID.TID 0000.0001) %MON forcing_qnet_sd              =   4.4750034447230E+01
(PID.TID 0000.0001) %MON forcing_qnet_del2            =   8.3511009577858E-01
(PID.TID 0000.0001) %MON forcing_qsw_max              =   0.0000000000000E+00
(PID.TID 0000.0001) %MON forcing_qsw_min              =   0.0000000000000E+00
(PID.TID 0000.0001) %MON forcing_qsw_mean             =   0.0000000000000E+00
(PID.TID 0000.0001) %MON forcing_qsw_sd               =   0.0000000000000E+00
(PID.TID 0000.0001) %MON forcing_qsw_del2             =   0.0000000000000E+00
(PID.TID 0000.0001) %MON forcing_empmr_max            =   2.5141471127199E-05
(PID.TID 0000.0001) %MON forcing_empmr_min            =  -3.9761445691511E-05
(PID.TID 0000.0001) %MON forcing_empmr_mean           =  -9.3236499820974E-06
(PID.TID 0000.0001) %MON forcing_empmr_sd             =   1.0249687273683E-05
(PID.TID 0000.0001) %MON forcing_empmr_del2           =   9.8755541425843E-08
(PID.TID 0000.0001) %MON forcing_fu_max               =   2.1191192989548E-01
(PID.TID 0000.0001) %MON forcing_fu_min               =  -9.0602193151911E-02
(PID.TID 0000.0001) %MON forcing_fu_mean              =   7.6089297966623E-02
(PID.TID 0000.0001) %MON forcing_fu_sd                =   7.1222146276148E-02
(PID.TID 0000.0001) %MON forcing_fu_del2              =   5.5142652943506E-04
(PID.TID 0000.0001) %MON forcing_fv_max               =   1.5112959456940E-01
(PID.TID 0000.0001) %MON forcing_fv_min               =  -7.6188909966085E-02
(PID.TID 0000.0001) %MON forcing_fv_mean              =  -1.9582730873688E-02
(PID.TID 0000.0001) %MON forcing_fv_sd                =   3.3561495862269E-02
(PID.TID 0000.0001) %MON forcing_fv_del2              =   3.7615705101537E-04
(PID.TID 0000.0001) %MON trAdv_CFL_u_max              =   1.7003082492344E-03
(PID.TID 0000.0001) %MON trAdv_CFL_v_max              =   3.8787703286368E-04
(PID.TID 0000.0001) %MON trAdv_CFL_w_max              =   1.3041766049463E-03
(PID.TID 0000.0001) %MON advcfl_uvel_max              =   7.0445614055720E-04
(PID.TID 0000.0001) %MON advcfl_vvel_max              =   3.7228187044900E-04
(PID.TID 0000.0001) %MON advcfl_wvel_max              =   3.4916813237598E-04
(PID.TID 0000.0001) %MON advcfl_W_hf_max              =   3.7484225975657E-04
(PID.TID 0000.0001) %MON pe_b_mean                    =   8.4645401067298E-04
(PID.TID 0000.0001) %MON ke_max                       =   9.3065375963451E-03
(PID.TID 0000.0001) %MON ke_mean                      =   1.6114064684285E-04
(PID.TID 0000.0001) %MON ke_vol                       =   1.2769337095763E+17
(PID.TID 0000.0001) %MON vort_r_min                   =  -4.7497453287611E-07
(PID.TID 0000.0001) %MON vort_r_max                   =   7.0249915996096E-07
(PID.TID 0000.0001) %MON vort_a_mean                  =  -1.0457492689883E-04
(PID.TID 0000.0001) %MON vort_a_sd                    =   2.1292601288778E-05
(PID.TID 0000.0001) %MON vort_p_mean                  =  -1.2574624485404E-04
(PID.TID 0000.0001) %MON vort_p_sd                    =   1.1183797897392E-04
(PID.TID 0000.0001) %MON surfExpan_theta_mean         =   5.8226121627846E-07
(PID.TID 0000.0001) %MON surfExpan_salt_mean          =   1.4737823058138E-07
(PID.TID 0000.0001) // =======================================================
(PID.TID 0000.0001) // End MONITOR dynamic field statistics
(PID.TID 0000.0001) // =======================================================
(PID.TID 0000.0001) // =======================================================
(PID.TID 0000.0001) // Begin OBCS MONITOR field statistics
(PID.TID 0000.0001) // =======================================================
(PID.TID 0000.0001) %MON obc_E_uVel_max               =   8.4206617623568E-02
(PID.TID 0000.0001) %MON obc_E_uVel_min               =  -6.0753776831552E-02
(PID.TID 0000.0001) %MON obc_E_uVel_mean              =   7.3661474887527E-03
(PID.TID 0000.0001) %MON obc_E_uVel_sd                =   1.4300388536982E-02
(PID.TID 0000.0001) %MON obc_E_uVel_Int               =   1.2628971617160E+08
(PID.TID 0000.0001) %MON obc_W_uVel_max               =   5.9711921424605E-02
(PID.TID 0000.0001) %MON obc_W_uVel_min               =  -2.5726765563013E-02
(PID.TID 0000.0001) %MON obc_W_uVel_mean              =   7.0228415305660E-03
(PID.TID 0000.0001) %MON obc_W_uVel_sd                =   1.1104577186453E-02
(PID.TID 0000.0001) %MON obc_W_uVel_Int               =   1.3125185667694E+08
(PID.TID 0000.0001) %MON obc_N_vVel_max               =   4.7458698332775E-02
(PID.TID 0000.0001) %MON obc_N_vVel_min               =  -7.0464502880350E-02
(PID.TID 0000.0001) %MON obc_N_vVel_mean              =   1.6489463583972E-04
(PID.TID 0000.0001) %MON obc_N_vVel_sd                =   6.4414130165526E-03
(PID.TID 0000.0001) %MON obc_N_vVel_Int               =   4.8205046667626E+06
(PID.TID 0000.0001) %MON obc_E_theta_max              =   1.9188122057915E+01
(PID.TID 0000.0001) %MON obc_E_theta_min              =  -1.6413412887603E+00
(PID.TID 0000.0001) %MON obc_E_theta_mean             =   1.9094756835234E+00
(PID.TID 0000.0001) %MON obc_E_theta_sd               =   2.9653138133164E+00
(PID.TID 0000.0001) %MON obc_W_theta_max              =   2.1408416497707E+01
(PID.TID 0000.0001) %MON obc_W_theta_min              =  -1.4417782802135E+00
(PID.TID 0000.0001) %MON obc_W_theta_mean             =   2.4654423373586E+00
(PID.TID 0000.0001) %MON obc_W_theta_sd               =   2.9593388267944E+00
(PID.TID 0000.0001) %MON obc_N_theta_max              =   2.3976551771164E+01
(PID.TID 0000.0001) %MON obc_N_theta_min              =  -6.3051774967462E-01
(PID.TID 0000.0001) %MON obc_N_theta_mean             =   4.8710604912599E+00
(PID.TID 0000.0001) %MON obc_N_theta_sd               =   4.7011121424215E+00
(PID.TID 0000.0001) // =======================================================
(PID.TID 0000.0001) // End OBCS MONITOR field statistics
(PID.TID 0000.0001) // =======================================================
(PID.TID 0000.0001) // =======================================================
(PID.TID 0000.0001) // Begin MONITOR ptracer field statistics
(PID.TID 0000.0001) // =======================================================
(PID.TID 0000.0001) %MON trcstat_ptracer01_max        =   2.3591388439091E+00
(PID.TID 0000.0001) %MON trcstat_ptracer01_min        =   1.9367666911509E+00
(PID.TID 0000.0001) %MON trcstat_ptracer01_mean       =   2.2425298524242E+00
(PID.TID 0000.0001) %MON trcstat_ptracer01_sd         =   7.5982214498954E-02
(PID.TID 0000.0001) %MON trcstat_ptracer01_del2       =   1.0692715200699E-04
(PID.TID 0000.0001) %MON trcstat_ptracer02_max        =   2.4116827051495E+00
(PID.TID 0000.0001) %MON trcstat_ptracer02_min        =   2.1899187357935E+00
(PID.TID 0000.0001) %MON trcstat_ptracer02_mean       =   2.3520448924303E+00
(PID.TID 0000.0001) %MON trcstat_ptracer02_sd         =   3.5091206529352E-02
(PID.TID 0000.0001) %MON trcstat_ptracer02_del2       =   8.0635539811942E-05
(PID.TID 0000.0001) %MON trcstat_ptracer03_max        =   2.7654636709716E-03
(PID.TID 0000.0001) %MON trcstat_ptracer03_min        =   4.7432055700319E-05
(PID.TID 0000.0001) %MON trcstat_ptracer03_mean       =   2.0556783076633E-03
(PID.TID 0000.0001) %MON trcstat_ptracer03_sd         =   5.0322942393966E-04
(PID.TID 0000.0001) %MON trcstat_ptracer03_del2       =   6.7072576861542E-07
(PID.TID 0000.0001) %MON trcstat_ptracer04_max        =   2.5672380280805E-04
(PID.TID 0000.0001) %MON trcstat_ptracer04_min        =  -7.4560330812746E-07
(PID.TID 0000.0001) %MON trcstat_ptracer04_mean       =   6.2017140691061E-06
(PID.TID 0000.0001) %MON trcstat_ptracer04_sd         =   2.6103558664163E-05
(PID.TID 0000.0001) %MON trcstat_ptracer04_del2       =   1.3471406838251E-07
(PID.TID 0000.0001) %MON trcstat_ptracer05_max        =   3.8358344114778E-01
(PID.TID 0000.0001) %MON trcstat_ptracer05_min        =   8.2347327431613E-02
(PID.TID 0000.0001) %MON trcstat_ptracer05_mean       =   2.1413247350644E-01
(PID.TID 0000.0001) %MON trcstat_ptracer05_sd         =   4.3053122094431E-02
(PID.TID 0000.0001) %MON trcstat_ptracer05_del2       =   1.1915552914615E-04
(PID.TID 0000.0001) // =======================================================
(PID.TID 0000.0001) // End MONITOR ptracers field statistics
(PID.TID 0000.0001) // =======================================================
 Computing Diagnostic #     23  ETAN         Counter:       1   Parms: SM      M1      
 Computing Diagnostic #     24  ETANSQ       Counter:       1   Parms: SM P    M1      
 Computing Diagnostic #     25  DETADT2      Counter:       1   Parms: SM      M1      
 Computing Diagnostic #     73  PHIBOT       Counter:       1   Parms: SM      M1      
 Computing Diagnostic #     74  PHIBOTSQ     Counter:       1   Parms: SM P    M1      
 Computing Diagnostic #    278  DICTFLX      Counter:       1   Parms: SM P    L1      
 Computing Diagnostic #    279  DICOFLX      Counter:       1   Parms: SM P    L1      
 Computing Diagnostic #    280  DICCFLX      Counter:       1   Parms: SM P    L1      
 Computing Diagnostic #    281  DICPCO2      Counter:       1   Parms: SM P    M1      
 Computing Diagnostic #    282  DICPHAV      Counter:       1   Parms: SM P    M1      
 Computing Diagnostic #     46  VVELMASS     Counter:       4   Parms: VVr     MR      
           Vector  Mate for  VVELMASS     Diagnostic #     45  UVELMASS exists 
 Computing Diagnostic #     45  UVELMASS     Counter:       4   Parms: UUr     MR      
           Vector  Mate for  UVELMASS     Diagnostic #     46  VVELMASS exists 
 Computing Diagnostic #     26  THETA        Counter:       4   Parms: SMR     MR      
 Computing Diagnostic #     27  SALT         Counter:       4   Parms: SMR     MR      
 Computing Diagnostic #    201  GM_PsiX      Counter:       4   Parms: UU      LR      
           Vector  Mate for  GM_PsiX      Diagnostic #    202  GM_PsiY  exists 
 Computing Diagnostic #    202  GM_PsiY      Counter:       4   Parms: VV      LR      
           Vector  Mate for  GM_PsiY      Diagnostic #    201  GM_PsiX  exists 
 Post-Processing Diag #     48  PhiVEL     Parms: SMR P   MR      
   from diag: UVELMASS (#    45) Cnt=       4 and diag: VVELMASS (#    46) Cnt=       4
 diag_cg2d (it=        9) a2dNorm,x2dNorm= 4.382025E-03 , 2.587316E+03 ; Criter= 1.00E-13
 diag_cg2d : k=   1 , it=   119   120 ; ini,min,last_Res= 4.6221091E+00 1.0942969E-13 6.6862617E-14
 diag_cg2d : k=   2 , it=   117   118 ; ini,min,last_Res= 3.4921213E+00 1.6994928E-13 9.3273808E-14
 diag_cg2d : k=   3 , it=   115   116 ; ini,min,last_Res= 1.9787829E+00 1.1996239E-13 7.4696795E-14
 diag_cg2d : k=   4 , it=   113   114 ; ini,min,last_Res= 2.1095387E+00 1.3954325E-13 7.6038576E-14
 diag_cg2d : k=   5 , it=   113   114 ; ini,min,last_Res= 2.7521475E+00 1.8786050E-13 9.8334157E-14
 diag_cg2d : k=   6 , it=   108   109 ; ini,min,last_Res= 1.9731189E+00 1.2720186E-13 7.4191653E-14
 diag_cg2d : k=   7 , it=   108   109 ; ini,min,last_Res= 2.4786839E+00 1.4046610E-13 6.9717301E-14
 diag_cg2d : k=   8 , it=   106   107 ; ini,min,last_Res= 2.0323530E+00 1.0679157E-13 6.5328354E-14
 diag_cg2d : k=   9 , it=   106   107 ; ini,min,last_Res= 2.0908868E+00 1.6536220E-13 8.5066921E-14
 diag_cg2d : k=  10 , it=   106   107 ; ini,min,last_Res= 1.9883293E+00 1.6632067E-13 9.1397552E-14
 diag_cg2d : k=  11 , it=   107   108 ; ini,min,last_Res= 2.2173685E+00 1.1388678E-13 6.8071355E-14
 diag_cg2d : k=  12 , it=   114   115 ; ini,min,last_Res= 2.2658303E+00 1.0425515E-13 5.5317647E-14
 diag_cg2d : k=  13 , it=    93    94 ; ini,min,last_Res= 2.3445132E+00 1.1850839E-13 5.1425956E-14
 diag_cg2d : k=  14 , it=    77    78 ; ini,min,last_Res= 1.9739662E+00 1.0298487E-13 5.7012469E-14
 diag_cg2d : k=  15 , it=    45    46 ; ini,min,last_Res= 1.7208581E+00 1.3629629E-13 3.8269536E-14
  get Post-Proc. Diag #     49  PsiVEL   from previous computation of Diag #     48
 Computing Diagnostic #     78  CONVADJ      Counter:       4   Parms: SMR     LR      
 Computing Diagnostic #     83  oceFWflx     Counter:       4   Parms: SM      U1      
 EXTERNAL_FIELDS_LOAD,         9 : iP,iLd,i0,i1=   12    1   12    1 ; Wght=  0.4968750000  0.5031250000
 DIC_FIELDS_LOAD,         9 : iP,iLd,i0,i1=   12    1   12    1 ; Wght=  0.4968750000  0.5031250000
 OBCS_FIELDS_LOAD,        10 : iP,iLd,i0,i1=   12    1   12    1 ; Wght=  0.4965277778  0.5034722222
 cg2d: Sum(rhs),rhsMax =   2.31943777568326E+02  7.57901983764508E+00
(PID.TID 0000.0001)      cg2d_init_res =   9.39945296957420E-03
(PID.TID 0000.0001)      cg2d_iters(min,last) =      -1      20
(PID.TID 0000.0001)      cg2d_last_res =   6.88556698450566E-14
(PID.TID 0000.0001) // =======================================================
(PID.TID 0000.0001) // Begin MONITOR dynamic field statistics
(PID.TID 0000.0001) // =======================================================
(PID.TID 0000.0001) %MON time_tsnumber                =                    10
(PID.TID 0000.0001) %MON time_secondsf                =   9.0000000000000E+03
(PID.TID 0000.0001) %MON dynstat_eta_max              =   4.3373654153947E-01
(PID.TID 0000.0001) %MON dynstat_eta_min              =  -1.4855064027927E+00
(PID.TID 0000.0001) %MON dynstat_eta_mean             =  -5.1765341221587E-01
(PID.TID 0000.0001) %MON dynstat_eta_sd               =   6.0033191072797E-01
(PID.TID 0000.0001) %MON dynstat_eta_del2             =   2.3483845430420E-03
(PID.TID 0000.0001) %MON dynstat_uvel_max             =   1.3111244217948E-01
(PID.TID 0000.0001) %MON dynstat_uvel_min             =  -6.0752188942085E-02
(PID.TID 0000.0001) %MON dynstat_uvel_mean            =   7.4226010087264E-03
(PID.TID 0000.0001) %MON dynstat_uvel_sd              =   1.4613212980582E-02
(PID.TID 0000.0001) %MON dynstat_uvel_del2            =   1.6153977003320E-04
(PID.TID 0000.0001) %MON dynstat_vvel_max             =   1.2936321849460E-01
(PID.TID 0000.0001) %MON dynstat_vvel_min             =  -8.8589565599042E-02
(PID.TID 0000.0001) %MON dynstat_vvel_mean            =   9.5934732023558E-04
(PID.TID 0000.0001) %MON dynstat_vvel_sd              =   8.3996847226312E-03
(PID.TID 0000.0001) %MON dynstat_vvel_del2            =   1.0557773432746E-04
(PID.TID 0000.0001) %MON dynstat_wvel_max             =   5.4269507002271E-05
(PID.TID 0000.0001) %MON dynstat_wvel_min             =  -1.4182951114060E-04
(PID.TID 0000.0001) %MON dynstat_wvel_mean            =  -2.4324022262514E-07
(PID.TID 0000.0001) %MON dynstat_wvel_sd              =   5.5206176741295E-06
(PID.TID 0000.0001) %MON dynstat_wvel_del2            =   1.4085219787707E-07
(PID.TID 0000.0001) %MON dynstat_theta_max            =   2.4160762503860E+01
(PID.TID 0000.0001) %MON dynstat_theta_min            =  -2.8958594637069E+00
(PID.TID 0000.0001) %MON dynstat_theta_mean           =   2.3216799598591E+00
(PID.TID 0000.0001) %MON dynstat_theta_sd             =   3.2105464411054E+00
(PID.TID 0000.0001) %MON dynstat_theta_del2           =   6.6458755677937E-03
(PID.TID 0000.0001) %MON dynstat_salt_max             =   3.6600820953357E+01
(PID.TID 0000.0001) %MON dynstat_salt_min             =   3.3084513718810E+01
(PID.TID 0000.0001) %MON dynstat_salt_mean            =   3.4483933796791E+01
(PID.TID 0000.0001) %MON dynstat_salt_sd              =   1.9644888040208E-01
(PID.TID 0000.0001) %MON dynstat_salt_del2            =   1.1587592603487E-03
(PID.TID 0000.0001) %MON forcing_qnet_max             =   6.8301423358917E+01
(PID.TID 0000.0001) %MON forcing_qnet_min             =  -2.1312400112152E+02
(PID.TID 0000.0001) %MON forcing_qnet_mean            =  -1.2115173769461E+02
(PID.TID 0000.0001) %MON forcing_qnet_sd              =   4.4746803962059E+01
(PID.TID 0000.0001) %MON forcing_qnet_del2            =   8.3513274884094E-01
(PID.TID 0000.0001) %MON forcing_qsw_max              =   0.0000000000000E+00
(PID.TID 0000.0001) %MON forcing_qsw_min              =   0.0000000000000E+00
(PID.TID 0000.0001) %MON forcing_qsw_mean             =   0.0000000000000E+00
(PID.TID 0000.0001) %MON forcing_qsw_sd               =   0.0000000000000E+00
(PID.TID 0000.0001) %MON forcing_qsw_del2             =   0.0000000000000E+00
(PID.TID 0000.0001) %MON forcing_empmr_max            =   2.5141471127199E-05
(PID.TID 0000.0001) %MON forcing_empmr_min            =  -3.9761445691511E-05
(PID.TID 0000.0001) %MON forcing_empmr_mean           =  -9.3236499820974E-06
(PID.TID 0000.0001) %MON forcing_empmr_sd             =   1.0249687273683E-05
(PID.TID 0000.0001) %MON forcing_empmr_del2           =   9.8755541425843E-08
(PID.TID 0000.0001) %MON forcing_fu_max               =   2.1191461747512E-01
(PID.TID 0000.0001) %MON forcing_fu_min               =  -9.0610866108909E-02
(PID.TID 0000.0001) %MON forcing_fu_mean              =   7.6087199030821E-02
(PID.TID 0000.0001) %MON forcing_fu_sd                =   7.1222866152490E-02
(PID.TID 0000.0001) %MON forcing_fu_del2              =   5.5144465757930E-04
(PID.TID 0000.0001) %MON forcing_fv_max               =   1.5112316268496E-01
(PID.TID 0000.0001) %MON forcing_fv_min               =  -7.6188280759379E-02
(PID.TID 0000.0001) %MON forcing_fv_mean              =  -1.9581500896822E-02
(PID.TID 0000.0001) %MON forcing_fv_sd                =   3.3561193444742E-02
(PID.TID 0000.0001) %MON forcing_fv_del2              =   3.7614423759351E-04
(PID.TID 0000.0001) %MON trAdv_CFL_u_max              =   1.7002192267056E-03
(PID.TID 0000.0001) %MON trAdv_CFL_v_max              =   3.8851053401204E-04
(PID.TID 0000.0001) %MON trAdv_CFL_w_max              =   1.3038946249899E-03
(PID.TID 0000.0001) %MON advcfl_uvel_max              =   7.0538340048264E-04
(PID.TID 0000.0001) %MON advcfl_vvel_max              =   3.7234368321354E-04
(PID.TID 0000.0001) %MON advcfl_wvel_max              =   3.4971660281245E-04
(PID.TID 0000.0001) %MON advcfl_W_hf_max              =   3.7543105890160E-04
(PID.TID 0000.0001) %MON pe_b_mean                    =   8.4663075545382E-04
(PID.TID 0000.0001) %MON ke_max                       =   9.3246420710628E-03
(PID.TID 0000.0001) %MON ke_mean                      =   1.6114891460230E-04
(PID.TID 0000.0001) %MON ke_vol                       =   1.2769337095763E+17
(PID.TID 0000.0001) %MON vort_r_min                   =  -4.7465480885600E-07
(PID.TID 0000.0001) %MON vort_r_max                   =   7.0232268915299E-07
(PID.TID 0000.0001) %MON vort_a_mean                  =  -1.0457492688810E-04
(PID.TID 0000.0001) %MON vort_a_sd                    =   2.1292605198184E-05
(PID.TID 0000.0001) %MON vort_p_mean                  =  -1.2574624484114E-04
(PID.TID 0000.0001) %MON vort_p_sd                    =   1.1183798668223E-04
(PID.TID 0000.0001) %MON surfExpan_theta_mean         =   6.8511565576318E-07
(PID.TID 0000.0001) %MON surfExpan_salt_mean          =   1.4608241170327E-07
(PID.TID 0000.0001) // =======================================================
(PID.TID 0000.0001) // End MONITOR dynamic field statistics
(PID.TID 0000.0001) // =======================================================
(PID.TID 0000.0001) // =======================================================
(PID.TID 0000.0001) // Begin OBCS MONITOR field statistics
(PID.TID 0000.0001) // =======================================================
(PID.TID 0000.0001) %MON obc_E_uVel_max               =   8.4203817778163E-02
(PID.TID 0000.0001) %MON obc_E_uVel_min               =  -6.0752188942085E-02
(PID.TID 0000.0001) %MON obc_E_uVel_mean              =   7.3661093069569E-03
(PID.TID 0000.0001) %MON obc_E_uVel_sd                =   1.4300401316927E-02
(PID.TID 0000.0001) %MON obc_E_uVel_Int               =   1.2628906155965E+08
(PID.TID 0000.0001) %MON obc_W_uVel_max               =   5.9712922226431E-02
(PID.TID 0000.0001) %MON obc_W_uVel_min               =  -2.5726815148826E-02
(PID.TID 0000.0001) %MON obc_W_uVel_mean              =   7.0227503974100E-03
(PID.TID 0000.0001) %MON obc_W_uVel_sd                =   1.1104659184122E-02
(PID.TID 0000.0001) %MON obc_W_uVel_Int               =   1.3125015346381E+08
(PID.TID 0000.0001) %MON obc_N_vVel_max               =   4.7457585641597E-02
(PID.TID 0000.0001) %MON obc_N_vVel_min               =  -7.0465577818039E-02
(PID.TID 0000.0001) %MON obc_N_vVel_mean              =   1.6485796501398E-04
(PID.TID 0000.0001) %MON obc_N_vVel_sd                =   6.4413840274931E-03
(PID.TID 0000.0001) %MON obc_N_vVel_Int               =   4.8194326374286E+06
(PID.TID 0000.0001) %MON obc_E_theta_max              =   1.9188569466273E+01
(PID.TID 0000.0001) %MON obc_E_theta_min              =  -1.6411610067719E+00
(PID.TID 0000.0001) %MON obc_E_theta_mean             =   1.9094754514918E+00
(PID.TID 0000.0001) %MON obc_E_theta_sd               =   2.9653236173757E+00
(PID.TID 0000.0001) %MON obc_W_theta_max              =   2.1408837146229E+01
(PID.TID 0000.0001) %MON obc_W_theta_min              =  -1.4417799930606E+00
(PID.TID 0000.0001) %MON obc_W_theta_mean             =   2.4654468631477E+00
(PID.TID 0000.0001) %MON obc_W_theta_sd               =   2.9593500447711E+00
(PID.TID 0000.0001) %MON obc_N_theta_max              =   2.3976986938053E+01
(PID.TID 0000.0001) %MON obc_N_theta_min              =  -6.3052822007901E-01
(PID.TID 0000.0001) %MON obc_N_theta_mean             =   4.8710649056910E+00
(PID.TID 0000.0001) %MON obc_N_theta_sd               =   4.7011304661254E+00
(PID.TID 0000.0001) // =======================================================
(PID.TID 0000.0001) // End OBCS MONITOR field statistics
(PID.TID 0000.0001) // =======================================================
(PID.TID 0000.0001) // =======================================================
(PID.TID 0000.0001) // Begin MONITOR ptracer field statistics
(PID.TID 0000.0001) // =======================================================
(PID.TID 0000.0001) %MON trcstat_ptracer01_max        =   2.3591388554305E+00
(PID.TID 0000.0001) %MON trcstat_ptracer01_min        =   1.9367662880635E+00
(PID.TID 0000.0001) %MON trcstat_ptracer01_mean       =   2.2425298250553E+00
(PID.TID 0000.0001) %MON trcstat_ptracer01_sd         =   7.5982280263356E-02
(PID.TID 0000.0001) %MON trcstat_ptracer01_del2       =   1.0692557747630E-04
(PID.TID 0000.0001) %MON trcstat_ptracer02_max        =   2.4116827187784E+00
(PID.TID 0000.0001) %MON trcstat_ptracer02_min        =   2.1899194548701E+00
(PID.TID 0000.0001) %MON trcstat_ptracer02_mean       =   2.3520448987065E+00
(PID.TID 0000.0001) %MON trcstat_ptracer02_sd         =   3.5091202282903E-02
(PID.TID 0000.0001) %MON trcstat_ptracer02_del2       =   8.0635377594887E-05
(PID.TID 0000.0001) %MON trcstat_ptracer03_max        =   2.7654637405399E-03
(PID.TID 0000.0001) %MON trcstat_ptracer03_min        =   4.7431114636579E-05
(PID.TID 0000.0001) %MON trcstat_ptracer03_mean       =   2.0556781195092E-03
(PID.TID 0000.0001) %MON trcstat_ptracer03_sd         =   5.0322975097101E-04
(PID.TID 0000.0001) %MON trcstat_ptracer03_del2       =   6.7071892544512E-07
(PID.TID 0000.0001) %MON trcstat_ptracer04_max        =   2.5673083903442E-04
(PID.TID 0000.0001) %MON trcstat_ptracer04_min        =  -7.4560342616302E-07
(PID.TID 0000.0001) %MON trcstat_ptracer04_mean       =   6.2018865547750E-06
(PID.TID 0000.0001) %MON trcstat_ptracer04_sd         =   2.6104395962452E-05
(PID.TID 0000.0001) %MON trcstat_ptracer04_del2       =   1.3471357015665E-07
(PID.TID 0000.0001) %MON trcstat_ptracer05_max        =   3.8358422143867E-01
(PID.TID 0000.0001) %MON trcstat_ptracer05_min        =   8.2347453813206E-02
(PID.TID 0000.0001) %MON trcstat_ptracer05_mean       =   2.1413243767350E-01
(PID.TID 0000.0001) %MON trcstat_ptracer05_sd         =   4.3053074340405E-02
(PID.TID 0000.0001) %MON trcstat_ptracer05_del2       =   1.1915141753509E-04
(PID.TID 0000.0001) // =======================================================
(PID.TID 0000.0001) // End MONITOR ptracers field statistics
(PID.TID 0000.0001) // =======================================================
(PID.TID 0000.0001) DIAGSTATS_CLOSE_IO: close file: dynStDiag.0000000000.txt , unit=     9
(PID.TID 0000.0001) %CHECKPOINT        10 ckptA
(PID.TID 0000.0001)   Seconds in section "ALL                    [THE_MODEL_MAIN]":
(PID.TID 0000.0001)           User time:  0.630729000549763
(PID.TID 0000.0001)         System time:  0.000000000000000E+000
(PID.TID 0000.0001)     Wall clock time:   1.61677503585815
(PID.TID 0000.0001)          No. starts:           1
(PID.TID 0000.0001)           No. stops:           1
(PID.TID 0000.0001)   Seconds in section "INITIALISE_FIXED       [THE_MODEL_MAIN]":
(PID.TID 0000.0001)           User time:  3.743500169366598E-002
(PID.TID 0000.0001)         System time:  0.000000000000000E+000
(PID.TID 0000.0001)     Wall clock time:  0.196575164794922
(PID.TID 0000.0001)          No. starts:           1
(PID.TID 0000.0001)           No. stops:           1
(PID.TID 0000.0001)   Seconds in section "THE_MAIN_LOOP          [THE_MODEL_MAIN]":
(PID.TID 0000.0001)           User time:  0.593275025486946
(PID.TID 0000.0001)         System time:  0.000000000000000E+000
(PID.TID 0000.0001)     Wall clock time:   1.42016601562500
(PID.TID 0000.0001)          No. starts:           1
(PID.TID 0000.0001)           No. stops:           1
(PID.TID 0000.0001)   Seconds in section "INITIALISE_VARIA    [THE_MAIN_LOOP]":
(PID.TID 0000.0001)           User time:  3.948599845170975E-002
(PID.TID 0000.0001)         System time:  0.000000000000000E+000
(PID.TID 0000.0001)     Wall clock time:  0.688360929489136
(PID.TID 0000.0001)          No. starts:           1
(PID.TID 0000.0001)           No. stops:           1
(PID.TID 0000.0001)   Seconds in section "MAIN LOOP           [THE_MAIN_LOOP]":
(PID.TID 0000.0001)           User time:  0.553767979145050
(PID.TID 0000.0001)         System time:  0.000000000000000E+000
(PID.TID 0000.0001)     Wall clock time:  0.731770038604736
(PID.TID 0000.0001)          No. starts:           1
(PID.TID 0000.0001)           No. stops:           1
(PID.TID 0000.0001)   Seconds in section "MAIN_DO_LOOP        [THE_MAIN_LOOP]":
(PID.TID 0000.0001)           User time:  0.553733997046947
(PID.TID 0000.0001)         System time:  0.000000000000000E+000
(PID.TID 0000.0001)     Wall clock time:  0.731663227081299
(PID.TID 0000.0001)          No. starts:          10
(PID.TID 0000.0001)           No. stops:          10
(PID.TID 0000.0001)   Seconds in section "FORWARD_STEP        [MAIN_DO_LOOP]":
(PID.TID 0000.0001)           User time:  0.553681015968323
(PID.TID 0000.0001)         System time:  0.000000000000000E+000
(PID.TID 0000.0001)     Wall clock time:  0.731470108032227
(PID.TID 0000.0001)          No. starts:          10
(PID.TID 0000.0001)           No. stops:          10
(PID.TID 0000.0001)   Seconds in section "DO_STATEVARS_DIAGS  [FORWARD_STEP]":
(PID.TID 0000.0001)           User time:  1.978497207164764E-002
(PID.TID 0000.0001)         System time:  0.000000000000000E+000
(PID.TID 0000.0001)     Wall clock time:  1.788687705993652E-002
(PID.TID 0000.0001)          No. starts:          20
(PID.TID 0000.0001)           No. stops:          20
(PID.TID 0000.0001)   Seconds in section "LOAD_FIELDS_DRIVER  [FORWARD_STEP]":
(PID.TID 0000.0001)           User time:  2.125009894371033E-003
(PID.TID 0000.0001)         System time:  0.000000000000000E+000
(PID.TID 0000.0001)     Wall clock time:  4.245305061340332E-002
(PID.TID 0000.0001)          No. starts:          10
(PID.TID 0000.0001)           No. stops:          10
(PID.TID 0000.0001)   Seconds in section "EXTERNAL_FLDS_LOAD [LOAD_FLDS_DRIVER]":
(PID.TID 0000.0001)           User time:  1.600004732608795E-003
(PID.TID 0000.0001)         System time:  0.000000000000000E+000
(PID.TID 0000.0001)     Wall clock time:  3.664183616638184E-002
(PID.TID 0000.0001)          No. starts:          10
(PID.TID 0000.0001)           No. stops:          10
(PID.TID 0000.0001)   Seconds in section "DO_ATMOSPHERIC_PHYS [FORWARD_STEP]":
(PID.TID 0000.0001)           User time:  5.201250314712524E-005
(PID.TID 0000.0001)         System time:  0.000000000000000E+000
(PID.TID 0000.0001)     Wall clock time:  9.942054748535156E-005
(PID.TID 0000.0001)          No. starts:          10
(PID.TID 0000.0001)           No. stops:          10
(PID.TID 0000.0001)   Seconds in section "DO_OCEANIC_PHYS     [FORWARD_STEP]":
(PID.TID 0000.0001)           User time:  4.638694971799850E-002
(PID.TID 0000.0001)         System time:  0.000000000000000E+000
(PID.TID 0000.0001)     Wall clock time:  4.578065872192383E-002
(PID.TID 0000.0001)          No. starts:          10
(PID.TID 0000.0001)           No. stops:          10
(PID.TID 0000.0001)   Seconds in section "GCHEM_CALC_TENDENCY [FORWARD_STEP]":
(PID.TID 0000.0001)           User time:  1.505017280578613E-005
(PID.TID 0000.0001)         System time:  0.000000000000000E+000
(PID.TID 0000.0001)     Wall clock time:  9.703636169433594E-005
(PID.TID 0000.0001)          No. starts:          10
(PID.TID 0000.0001)           No. stops:          10
(PID.TID 0000.0001)   Seconds in section "THERMODYNAMICS      [FORWARD_STEP]":
(PID.TID 0000.0001)           User time:  0.236527934670448
(PID.TID 0000.0001)         System time:  0.000000000000000E+000
(PID.TID 0000.0001)     Wall clock time:  0.233731508255005
(PID.TID 0000.0001)          No. starts:          10
(PID.TID 0000.0001)           No. stops:          10
(PID.TID 0000.0001)   Seconds in section "DYNAMICS            [FORWARD_STEP]":
(PID.TID 0000.0001)           User time:  5.878902971744537E-002
(PID.TID 0000.0001)         System time:  0.000000000000000E+000
(PID.TID 0000.0001)     Wall clock time:  5.788755416870117E-002
(PID.TID 0000.0001)          No. starts:          10
(PID.TID 0000.0001)           No. stops:          10
(PID.TID 0000.0001)   Seconds in section "SOLVE_FOR_PRESSURE  [FORWARD_STEP]":
(PID.TID 0000.0001)           User time:  3.671035170555115E-003
(PID.TID 0000.0001)         System time:  0.000000000000000E+000
(PID.TID 0000.0001)     Wall clock time:  6.308078765869141E-003
(PID.TID 0000.0001)          No. starts:          10
(PID.TID 0000.0001)           No. stops:          10
(PID.TID 0000.0001)   Seconds in section "MOM_CORRECTION_STEP [FORWARD_STEP]":
(PID.TID 0000.0001)           User time:  1.084990799427032E-003
(PID.TID 0000.0001)         System time:  0.000000000000000E+000
(PID.TID 0000.0001)     Wall clock time:  1.379966735839844E-003
(PID.TID 0000.0001)          No. starts:          10
(PID.TID 0000.0001)           No. stops:          10
(PID.TID 0000.0001)   Seconds in section "INTEGR_CONTINUITY   [FORWARD_STEP]":
(PID.TID 0000.0001)           User time:  1.128017902374268E-003
(PID.TID 0000.0001)         System time:  0.000000000000000E+000
(PID.TID 0000.0001)     Wall clock time:  1.821756362915039E-003
(PID.TID 0000.0001)          No. starts:          10
(PID.TID 0000.0001)           No. stops:          10
(PID.TID 0000.0001)   Seconds in section "TRC_CORRECTION_STEP [FORWARD_STEP]":
(PID.TID 0000.0001)           User time:  0.000000000000000E+000
(PID.TID 0000.0001)         System time:  0.000000000000000E+000
(PID.TID 0000.0001)     Wall clock time:  1.022815704345703E-004
(PID.TID 0000.0001)          No. starts:          10
(PID.TID 0000.0001)           No. stops:          10
(PID.TID 0000.0001)   Seconds in section "GCHEM_FORCING_SEP  [FORWARD_STEP]":
(PID.TID 0000.0001)           User time:  2.426402270793915E-002
(PID.TID 0000.0001)         System time:  0.000000000000000E+000
(PID.TID 0000.0001)     Wall clock time:  2.006483078002930E-002
(PID.TID 0000.0001)          No. starts:          10
(PID.TID 0000.0001)           No. stops:          10
(PID.TID 0000.0001)   Seconds in section "BLOCKING_EXCHANGES  [FORWARD_STEP]":
(PID.TID 0000.0001)           User time:  6.568968296051025E-003
(PID.TID 0000.0001)         System time:  0.000000000000000E+000
(PID.TID 0000.0001)     Wall clock time:  8.816003799438477E-003
(PID.TID 0000.0001)          No. starts:          10
(PID.TID 0000.0001)           No. stops:          10
(PID.TID 0000.0001)   Seconds in section "MONITOR             [FORWARD_STEP]":
(PID.TID 0000.0001)           User time:  2.010899782180786E-002
(PID.TID 0000.0001)         System time:  0.000000000000000E+000
(PID.TID 0000.0001)     Wall clock time:  2.003979682922363E-002
(PID.TID 0000.0001)          No. starts:          10
(PID.TID 0000.0001)           No. stops:          10
(PID.TID 0000.0001)   Seconds in section "DO_THE_MODEL_IO     [FORWARD_STEP]":
(PID.TID 0000.0001)           User time:  0.126006036996841
(PID.TID 0000.0001)         System time:  0.000000000000000E+000
(PID.TID 0000.0001)     Wall clock time:  0.241847753524780
(PID.TID 0000.0001)          No. starts:          10
(PID.TID 0000.0001)           No. stops:          10
(PID.TID 0000.0001)   Seconds in section "PTRACERS_RESET      [FORWARD_STEP]":
(PID.TID 0000.0001)           User time:  3.097951412200928E-005
(PID.TID 0000.0001)         System time:  0.000000000000000E+000
(PID.TID 0000.0001)     Wall clock time:  1.029968261718750E-004
(PID.TID 0000.0001)          No. starts:          10
(PID.TID 0000.0001)           No. stops:          10
(PID.TID 0000.0001)   Seconds in section "DO_WRITE_PICKUP     [FORWARD_STEP]":
(PID.TID 0000.0001)           User time:  6.950035691261292E-003
(PID.TID 0000.0001)         System time:  0.000000000000000E+000
(PID.TID 0000.0001)     Wall clock time:  3.114509582519531E-002
(PID.TID 0000.0001)          No. starts:          10
(PID.TID 0000.0001)           No. stops:          10
(PID.TID 0000.0001) // ======================================================
(PID.TID 0000.0001) // Tile <-> Tile communication statistics
(PID.TID 0000.0001) // ======================================================
(PID.TID 0000.0001) // o Tile number: 000001
(PID.TID 0000.0001) //         No. X exchanges =              0
(PID.TID 0000.0001) //            Max. X spins =              0
(PID.TID 0000.0001) //            Min. X spins =     1000000000
(PID.TID 0000.0001) //          Total. X spins =              0
(PID.TID 0000.0001) //            Avg. X spins =       0.00E+00
(PID.TID 0000.0001) //         No. Y exchanges =              0
(PID.TID 0000.0001) //            Max. Y spins =              0
(PID.TID 0000.0001) //            Min. Y spins =     1000000000
(PID.TID 0000.0001) //          Total. Y spins =              0
(PID.TID 0000.0001) //            Avg. Y spins =       0.00E+00
(PID.TID 0000.0001) // o Tile number: 000002
(PID.TID 0000.0001) //         No. X exchanges =              0
(PID.TID 0000.0001) //            Max. X spins =              0
(PID.TID 0000.0001) //            Min. X spins =     1000000000
(PID.TID 0000.0001) //          Total. X spins =              0
(PID.TID 0000.0001) //            Avg. X spins =       0.00E+00
(PID.TID 0000.0001) //         No. Y exchanges =              0
(PID.TID 0000.0001) //            Max. Y spins =              0
(PID.TID 0000.0001) //            Min. Y spins =     1000000000
(PID.TID 0000.0001) //          Total. Y spins =              0
(PID.TID 0000.0001) //            Avg. Y spins =       0.00E+00
(PID.TID 0000.0001) // o Tile number: 000003
(PID.TID 0000.0001) //         No. X exchanges =              0
(PID.TID 0000.0001) //            Max. X spins =              0
(PID.TID 0000.0001) //            Min. X spins =     1000000000
(PID.TID 0000.0001) //          Total. X spins =              0
(PID.TID 0000.0001) //            Avg. X spins =       0.00E+00
(PID.TID 0000.0001) //         No. Y exchanges =              0
(PID.TID 0000.0001) //            Max. Y spins =              0
(PID.TID 0000.0001) //            Min. Y spins =     1000000000
(PID.TID 0000.0001) //          Total. Y spins =              0
(PID.TID 0000.0001) //            Avg. Y spins =       0.00E+00
(PID.TID 0000.0001) // o Tile number: 000004
(PID.TID 0000.0001) //         No. X exchanges =              0
(PID.TID 0000.0001) //            Max. X spins =              0
(PID.TID 0000.0001) //            Min. X spins =     1000000000
(PID.TID 0000.0001) //          Total. X spins =              0
(PID.TID 0000.0001) //            Avg. X spins =       0.00E+00
(PID.TID 0000.0001) //         No. Y exchanges =              0
(PID.TID 0000.0001) //            Max. Y spins =              0
(PID.TID 0000.0001) //            Min. Y spins =     1000000000
(PID.TID 0000.0001) //          Total. Y spins =              0
(PID.TID 0000.0001) //            Avg. Y spins =       0.00E+00
(PID.TID 0000.0001) // o Tile number: 000005
(PID.TID 0000.0001) //         No. X exchanges =              0
(PID.TID 0000.0001) //            Max. X spins =              0
(PID.TID 0000.0001) //            Min. X spins =     1000000000
(PID.TID 0000.0001) //          Total. X spins =              0
(PID.TID 0000.0001) //            Avg. X spins =       0.00E+00
(PID.TID 0000.0001) //         No. Y exchanges =              0
(PID.TID 0000.0001) //            Max. Y spins =              0
(PID.TID 0000.0001) //            Min. Y spins =     1000000000
(PID.TID 0000.0001) //          Total. Y spins =              0
(PID.TID 0000.0001) //            Avg. Y spins =       0.00E+00
(PID.TID 0000.0001) // o Tile number: 000006
(PID.TID 0000.0001) //         No. X exchanges =              0
(PID.TID 0000.0001) //            Max. X spins =              0
(PID.TID 0000.0001) //            Min. X spins =     1000000000
(PID.TID 0000.0001) //          Total. X spins =              0
(PID.TID 0000.0001) //            Avg. X spins =       0.00E+00
(PID.TID 0000.0001) //         No. Y exchanges =              0
(PID.TID 0000.0001) //            Max. Y spins =              0
(PID.TID 0000.0001) //            Min. Y spins =     1000000000
(PID.TID 0000.0001) //          Total. Y spins =              0
(PID.TID 0000.0001) //            Avg. Y spins =       0.00E+00
(PID.TID 0000.0001) // o Thread number: 000001
(PID.TID 0000.0001) //            No. barriers =          34670
(PID.TID 0000.0001) //      Max. barrier spins =              1
(PID.TID 0000.0001) //      Min. barrier spins =              1
(PID.TID 0000.0001) //     Total barrier spins =          34670
(PID.TID 0000.0001) //      Avg. barrier spins =       1.00E+00
PROGRAM MAIN: Execution ended Normally
